0
     RDKit          3D

 22 24  0  0  0  0  0  0  0  0999 V2000
    4.2505    1.0017   -0.5288 Br  0  0  0  0  0  0  0  0  0  0  0  0
    2.5908    0.0936   -0.3029 C   0  0  0  0  0  0  0  0  0  0  0  0
    2.6213   -1.3080   -0.3190 C   0  0  0  0  0  0  0  0  0  0  0  0
    1.4426   -2.0267   -0.1606 C   0  0  0  0  0  0  0  0  0  0  0  0
    0.2449   -1.3404   -0.0015 C   0  0  0  0  0  0  0  0  0  0  0  0
   -0.8865   -2.1107    0.1431 O   0  0  0  0  0  0  0  0  0  0  0  0
   -2.0773   -1.4106   -0.2470 C   0  0  0  0  0  0  0  0  0  0  0  0
   -2.2313   -0.0805    0.4850 C   0  0  0  0  0  0  0  0  0  0  0  0
   -0.9930    0.7410    0.2581 C   0  0  0  0  0  0  0  0  0  0  0  0
   -1.0095    2.1293    0.3195 C   0  0  0  0  0  0  0  0  0  0  0  0
    0.1871    2.7920    0.1372 C   0  0  0  0  0  0  0  0  0  0  0  0
    1.3677    2.1711   -0.0794 N   0  0  0  0  0  0  0  0  0  0  0  0
    1.4018    0.8161   -0.1190 C   0  0  0  0  0  0  0  0  0  0  0  0
    0.2183    0.0653    0.0385 C   0  0  0  0  0  0  0  0  0  0  0  0
    3.5594   -1.8405   -0.4538 H   0  0  0  0  0  0  0  0  0  0  0  0
    1.4541   -3.1131   -0.1720 H   0  0  0  0  0  0  0  0  0  0  0  0
   -2.0664   -1.2725   -1.3366 H   0  0  0  0  0  0  0  0  0  0  0  0
   -2.9288   -2.0588   -0.0134 H   0  0  0  0  0  0  0  0  0  0  0  0
   -2.3390   -0.2507    1.5627 H   0  0  0  0  0  0  0  0  0  0  0  0
   -3.1214    0.4423    0.1192 H   0  0  0  0  0  0  0  0  0  0  0  0
   -1.9229    2.6832    0.5041 H   0  0  0  0  0  0  0  0  0  0  0  0
    0.2375    3.8769    0.1669 H   0  0  0  0  0  0  0  0  0  0  0  0
  1  2  1  0
  2  3  2  0
  3  4  1  0
  4  5  2  0
  5  6  1  0
  6  7  1  0
  7  8  1  0
  8  9  1  0
  9 10  1  0
 10 11  2  0
 11 12  1  0
 12 13  2  0
 13 14  1  0
 13  2  1  0
 14  5  1  0
 14  9  2  0
  3 15  1  0
  4 16  1  0
  7 17  1  0
  7 18  1  0
  8 19  1  0
  8 20  1  0
 10 21  1  0
 11 22  1  0
M  END
>  <Unnamed: 0>  (1) 
1

>  <ID>  (1) 
TRAIN_0001

>  <Canonical_Smiles>  (1) 
Brc1ccc2OCCc3ccnc1c23

>  <Inhibition>  (1) 
4.45

>  <TDC_conf_true_inhibitor>  (1) 
0

>  <TDC_conf_non_inhibitor>  (1) 
1

>  <split>  (1) 
1

$$$$
1
     RDKit          3D

 41 44  0  0  0  0  0  0  0  0999 V2000
   -6.2545   -5.3575   -0.6636 F   0  0  0  0  0  0  0  0  0  0  0  0
   -5.5504   -4.2266   -0.5135 C   0  0  0  0  0  0  0  0  0  0  0  0
   -6.1990   -3.0864   -0.0410 C   0  0  0  0  0  0  0  0  0  0  0  0
   -5.5047   -1.8846    0.1312 C   0  0  0  0  0  0  0  0  0  0  0  0
   -4.1466   -1.9030   -0.1943 C   0  0  0  0  0  0  0  0  0  0  0  0
   -3.1723   -0.9429   -0.1560 N   0  0  0  0  0  0  0  0  0  0  0  0
   -1.9947   -1.4937   -0.5916 C   0  0  0  0  0  0  0  0  0  0  0  0
   -0.8587   -0.7797   -0.6566 N   0  0  0  0  0  0  0  0  0  0  0  0
   -0.6910    0.6089   -0.4635 C   0  0  0  0  0  0  0  0  0  0  0  0
   -1.7566    1.3779   -0.1104 N   0  0  0  0  0  0  0  0  0  0  0  0
   -1.5373    2.6935    0.0992 C   0  0  0  0  0  0  0  0  0  0  0  0
   -0.2980    3.2950   -0.0143 C   0  0  0  0  0  0  0  0  0  0  0  0
    0.7928    2.5055   -0.3662 C   0  0  0  0  0  0  0  0  0  0  0  0
    0.6091    1.1431   -0.5960 C   0  0  0  0  0  0  0  0  0  0  0  0
    1.5913    0.2498   -0.9456 O   0  0  0  0  0  0  0  0  0  0  0  0
    2.9354    0.7133   -1.0922 C   0  0  0  0  0  0  0  0  0  0  0  0
    3.6572    0.8681    0.2285 C   0  0  0  0  0  0  0  0  0  0  0  0
    3.4253   -0.0201    1.2893 C   0  0  0  0  0  0  0  0  0  0  0  0
    4.1140    0.1147    2.4959 C   0  0  0  0  0  0  0  0  0  0  0  0
    5.0532    1.1332    2.6545 C   0  0  0  0  0  0  0  0  0  0  0  0
    5.3090    2.0168    1.6025 C   0  0  0  0  0  0  0  0  0  0  0  0
    4.6169    1.8796    0.3920 C   0  0  0  0  0  0  0  0  0  0  0  0
    6.2773    3.0622    1.7602 C   0  0  0  0  0  0  0  0  0  0  0  0
    7.0560    3.9144    1.8793 N   0  0  0  0  0  0  0  0  0  0  0  0
   -2.1568   -2.7587   -0.9077 N   0  0  0  0  0  0  0  0  0  0  0  0
   -3.4831   -3.0314   -0.6681 C   0  0  0  0  0  0  0  0  0  0  0  0
   -4.1934   -4.2266   -0.8346 C   0  0  0  0  0  0  0  0  0  0  0  0
   -7.2584   -3.1420    0.1937 H   0  0  0  0  0  0  0  0  0  0  0  0
   -5.9975   -0.9910    0.4977 H   0  0  0  0  0  0  0  0  0  0  0  0
   -3.2580    0.0262    0.1197 H   0  0  0  0  0  0  0  0  0  0  0  0
   -0.0541   -1.2159   -1.0929 H   0  0  0  0  0  0  0  0  0  0  0  0
   -2.4146    3.2730    0.3738 H   0  0  0  0  0  0  0  0  0  0  0  0
   -0.1810    4.3574    0.1715 H   0  0  0  0  0  0  0  0  0  0  0  0
    1.7622    2.9833   -0.4431 H   0  0  0  0  0  0  0  0  0  0  0  0
    3.4692   -0.0527   -1.6676 H   0  0  0  0  0  0  0  0  0  0  0  0
    2.9709    1.6253   -1.7001 H   0  0  0  0  0  0  0  0  0  0  0  0
    2.6982   -0.8246    1.1831 H   0  0  0  0  0  0  0  0  0  0  0  0
    3.9171   -0.5775    3.3117 H   0  0  0  0  0  0  0  0  0  0  0  0
    5.5839    1.2283    3.6001 H   0  0  0  0  0  0  0  0  0  0  0  0
    4.8276    2.5661   -0.4272 H   0  0  0  0  0  0  0  0  0  0  0  0
   -3.7058   -5.1207   -1.2009 H   0  0  0  0  0  0  0  0  0  0  0  0
  1  2  1  0
  2  3  2  0
  3  4  1  0
  4  5  2  0
  5  6  1  0
  6  7  1  0
  7  8  1  0
  8  9  1  0
  9 10  2  0
 10 11  1  0
 11 12  2  0
 12 13  1  0
 13 14  2  0
 14 15  1  0
 15 16  1  0
 16 17  1  0
 17 18  2  0
 18 19  1  0
 19 20  2  0
 20 21  1  0
 21 22  2  0
 21 23  1  0
 23 24  3  0
  7 25  2  0
 25 26  1  0
 26 27  2  0
 27  2  1  0
 26  5  1  0
 14  9  1  0
 22 17  1  0
  3 28  1  0
  4 29  1  0
  6 30  1  0
  8 31  1  0
 11 32  1  0
 12 33  1  0
 13 34  1  0
 16 35  1  0
 16 36  1  0
 18 37  1  0
 19 38  1  0
 20 39  1  0
 22 40  1  0
 27 41  1  0
M  END
>  <Unnamed: 0>  (2) 
11

>  <ID>  (2) 
TRAIN_0011

>  <Canonical_Smiles>  (2) 
Fc1ccc2[nH]c(Nc3ncccc3OCc4cccc(c4)C#N)nc2c1

>  <Inhibition>  (2) 
71.0

>  <TDC_conf_true_inhibitor>  (2) 
1

>  <TDC_conf_non_inhibitor>  (2) 
0

>  <split>  (2) 
1

$$$$
2
     RDKit          3D

 29 30  0  0  0  0  0  0  0  0999 V2000
   -4.0034    1.5164    1.1522 C   0  0  0  0  0  0  0  0  0  0  0  0
   -2.6149    1.5740    0.8275 O   0  0  0  0  0  0  0  0  0  0  0  0
   -2.1247    0.4329    0.2637 C   0  0  0  0  0  0  0  0  0  0  0  0
   -2.7969   -0.5643    0.0365 O   0  0  0  0  0  0  0  0  0  0  0  0
   -0.7128    0.5936   -0.0275 C   0  0  0  0  0  0  0  0  0  0  0  0
    0.0570    1.7406    0.1067 C   0  0  0  0  0  0  0  0  0  0  0  0
    1.3773    1.4680   -0.3235 C   0  0  0  0  0  0  0  0  0  0  0  0
    2.5448    2.2487   -0.4179 C   0  0  0  0  0  0  0  0  0  0  0  0
    3.7103    1.6593   -0.9008 C   0  0  0  0  0  0  0  0  0  0  0  0
    4.8255    2.3965   -0.9940 F   0  0  0  0  0  0  0  0  0  0  0  0
    3.7434    0.3282   -1.2872 C   0  0  0  0  0  0  0  0  0  0  0  0
    2.5946   -0.4634   -1.2007 C   0  0  0  0  0  0  0  0  0  0  0  0
    1.4134    0.1283   -0.7135 C   0  0  0  0  0  0  0  0  0  0  0  0
    0.1420   -0.3928   -0.5047 N   0  0  0  0  0  0  0  0  0  0  0  0
   -0.2298   -1.7829   -0.7883 C   0  0  0  0  0  0  0  0  0  0  0  0
   -0.2091   -2.6659    0.4303 C   0  0  0  0  0  0  0  0  0  0  0  0
   -1.2883   -3.2419    0.9770 C   0  0  0  0  0  0  0  0  0  0  0  0
    1.3505   -3.0181    1.1019 Cl  0  0  0  0  0  0  0  0  0  0  0  0
   -4.1947    0.7231    1.8817 H   0  0  0  0  0  0  0  0  0  0  0  0
   -4.6027    1.3664    0.2487 H   0  0  0  0  0  0  0  0  0  0  0  0
   -4.2866    2.4730    1.5999 H   0  0  0  0  0  0  0  0  0  0  0  0
   -0.3066    2.6950    0.4681 H   0  0  0  0  0  0  0  0  0  0  0  0
    2.5500    3.2925   -0.1231 H   0  0  0  0  0  0  0  0  0  0  0  0
    4.6732   -0.0957   -1.6547 H   0  0  0  0  0  0  0  0  0  0  0  0
    2.6351   -1.5069   -1.4966 H   0  0  0  0  0  0  0  0  0  0  0  0
    0.4576   -2.1720   -1.5477 H   0  0  0  0  0  0  0  0  0  0  0  0
   -1.2096   -1.7703   -1.2761 H   0  0  0  0  0  0  0  0  0  0  0  0
   -2.2832   -3.0719    0.5763 H   0  0  0  0  0  0  0  0  0  0  0  0
   -1.2111   -3.8906    1.8441 H   0  0  0  0  0  0  0  0  0  0  0  0
  1  2  1  0
  2  3  1  0
  3  4  2  0
  3  5  1  0
  5  6  2  0
  6  7  1  0
  7  8  2  0
  8  9  1  0
  9 10  1  0
  9 11  2  0
 11 12  1  0
 12 13  2  0
 13 14  1  0
 14 15  1  0
 15 16  1  0
 16 17  2  0
 16 18  1  0
 14  5  1  0
 13  7  1  0
  1 19  1  0
  1 20  1  0
  1 21  1  0
  6 22  1  0
  8 23  1  0
 11 24  1  0
 12 25  1  0
 15 26  1  0
 15 27  1  0
 17 28  1  0
 17 29  1  0
M  END
>  <Unnamed: 0>  (3) 
12

>  <ID>  (3) 
TRAIN_0012

>  <Canonical_Smiles>  (3) 
COC(=O)c1cc2cc(F)ccc2n1CC(=C)Cl

>  <Inhibition>  (3) 
21.4

>  <TDC_conf_true_inhibitor>  (3) 
0

>  <TDC_conf_non_inhibitor>  (3) 
1

>  <split>  (3) 
1

$$$$
3
     RDKit          3D

 51 52  0  0  0  0  0  0  0  0999 V2000
    5.5791    1.5859    0.3947 C   0  0  0  0  0  0  0  0  0  0  0  0
    4.1270    1.2516    0.7539 C   0  0  0  0  0  0  0  0  0  0  0  0
    4.0922    0.6460    2.1627 C   0  0  0  0  0  0  0  0  0  0  0  0
    3.4832    0.3001   -0.2771 C   0  0  0  0  0  0  0  0  0  0  0  0
    2.0895    0.0125    0.0732 N   0  0  0  0  0  0  0  0  0  0  0  0
    1.4989   -1.1660   -0.3340 C   0  0  0  0  0  0  0  0  0  0  0  0
    2.1368   -2.0836   -0.8389 O   0  0  0  0  0  0  0  0  0  0  0  0
    0.0414   -1.2005   -0.1898 C   0  0  0  0  0  0  0  0  0  0  0  0
   -0.7286   -0.6146    0.8163 C   0  0  0  0  0  0  0  0  0  0  0  0
   -0.2735    0.0969    2.0499 C   0  0  0  0  0  0  0  0  0  0  0  0
   -2.0604   -0.8240    0.4981 N   0  0  0  0  0  0  0  0  0  0  0  0
   -3.2110   -0.3067    1.2246 C   0  0  0  0  0  0  0  0  0  0  0  0
   -3.7644    1.0618    0.7600 C   0  0  0  0  0  0  0  0  0  0  0  0
   -2.7588    2.1979    0.9515 C   0  0  0  0  0  0  0  0  0  0  0  0
   -4.2642    1.0544   -0.6868 C   0  0  0  0  0  0  0  0  0  0  0  0
   -4.8869    1.3831    1.6036 O   0  0  0  0  0  0  0  0  0  0  0  0
   -2.1582   -1.6787   -0.5893 C   0  0  0  0  0  0  0  0  0  0  0  0
   -3.2775   -2.2609   -1.2164 C   0  0  0  0  0  0  0  0  0  0  0  0
   -3.0667   -3.0721   -2.3338 C   0  0  0  0  0  0  0  0  0  0  0  0
   -1.7837   -3.2942   -2.8055 C   0  0  0  0  0  0  0  0  0  0  0  0
   -1.6075   -4.0735   -3.8813 F   0  0  0  0  0  0  0  0  0  0  0  0
   -0.6745   -2.7277   -2.1844 C   0  0  0  0  0  0  0  0  0  0  0  0
   -0.8590   -1.9094   -1.0481 C   0  0  0  0  0  0  0  0  0  0  0  0
    3.4409    0.9429   -1.6660 C   0  0  0  0  0  0  0  0  0  0  0  0
    2.5882    1.7203   -2.0718 O   0  0  0  0  0  0  0  0  0  0  0  0
    4.4807    0.5969   -2.4497 O   0  0  0  0  0  0  0  0  0  0  0  0
    6.0371    2.2119    1.1683 H   0  0  0  0  0  0  0  0  0  0  0  0
    6.1823    0.6771    0.2949 H   0  0  0  0  0  0  0  0  0  0  0  0
    5.6396    2.1426   -0.5454 H   0  0  0  0  0  0  0  0  0  0  0  0
    3.5625    2.1934    0.7791 H   0  0  0  0  0  0  0  0  0  0  0  0
    4.6132   -0.3171    2.1924 H   0  0  0  0  0  0  0  0  0  0  0  0
    3.0647    0.4880    2.5042 H   0  0  0  0  0  0  0  0  0  0  0  0
    4.5742    1.3136    2.8851 H   0  0  0  0  0  0  0  0  0  0  0  0
    4.0374   -0.6439   -0.3384 H   0  0  0  0  0  0  0  0  0  0  0  0
    1.4656    0.8094    0.1109 H   0  0  0  0  0  0  0  0  0  0  0  0
    0.6718   -0.3240    2.4076 H   0  0  0  0  0  0  0  0  0  0  0  0
   -0.1180    1.1600    1.8456 H   0  0  0  0  0  0  0  0  0  0  0  0
   -0.9782    0.0008    2.8787 H   0  0  0  0  0  0  0  0  0  0  0  0
   -2.9613   -0.2684    2.2899 H   0  0  0  0  0  0  0  0  0  0  0  0
   -4.0057   -1.0617    1.1748 H   0  0  0  0  0  0  0  0  0  0  0  0
   -2.4191    2.2468    1.9920 H   0  0  0  0  0  0  0  0  0  0  0  0
   -1.8884    2.0923    0.2973 H   0  0  0  0  0  0  0  0  0  0  0  0
   -3.2244    3.1678    0.7392 H   0  0  0  0  0  0  0  0  0  0  0  0
   -5.0229    0.2786   -0.8357 H   0  0  0  0  0  0  0  0  0  0  0  0
   -4.7519    2.0053   -0.9319 H   0  0  0  0  0  0  0  0  0  0  0  0
   -3.4518    0.8969   -1.4026 H   0  0  0  0  0  0  0  0  0  0  0  0
   -5.6355    0.8140    1.3527 H   0  0  0  0  0  0  0  0  0  0  0  0
   -4.2872   -2.0962   -0.8556 H   0  0  0  0  0  0  0  0  0  0  0  0
   -3.9068   -3.5357   -2.8421 H   0  0  0  0  0  0  0  0  0  0  0  0
    0.3193   -2.9312   -2.5721 H   0  0  0  0  0  0  0  0  0  0  0  0
    4.3007    1.0413   -3.3044 H   0  0  0  0  0  0  0  0  0  0  0  0
  1  2  1  0
  2  3  1  0
  2  4  1  0
  4  5  1  0
  5  6  1  0
  6  7  2  0
  6  8  1  0
  8  9  2  0
  9 10  1  0
  9 11  1  0
 11 12  1  0
 12 13  1  0
 13 14  1  0
 13 15  1  0
 13 16  1  0
 11 17  1  0
 17 18  2  0
 18 19  1  0
 19 20  2  0
 20 21  1  0
 20 22  1  0
 22 23  2  0
  4 24  1  0
 24 25  2  0
 24 26  1  0
 23  8  1  0
 23 17  1  0
  1 27  1  0
  1 28  1  0
  1 29  1  0
  2 30  1  0
  3 31  1  0
  3 32  1  0
  3 33  1  0
  4 34  1  0
  5 35  1  0
 10 36  1  0
 10 37  1  0
 10 38  1  0
 12 39  1  0
 12 40  1  0
 14 41  1  0
 14 42  1  0
 14 43  1  0
 15 44  1  0
 15 45  1  0
 15 46  1  0
 16 47  1  0
 18 48  1  0
 19 49  1  0
 22 50  1  0
 26 51  1  0
M  END
>  <Unnamed: 0>  (4) 
125

>  <ID>  (4) 
TRAIN_0125

>  <Canonical_Smiles>  (4) 
CC(C)C(NC(=O)c1c(C)n(CC(C)(C)O)c2ccc(F)cc12)C(=O)O

>  <Inhibition>  (4) 
8.23

>  <TDC_conf_true_inhibitor>  (4) 
0

>  <TDC_conf_non_inhibitor>  (4) 
1

>  <split>  (4) 
1

$$$$
4
     RDKit          3D

 23 24  0  0  0  0  0  0  0  0999 V2000
    4.4774   -0.2346    0.2241 C   0  0  0  0  0  0  0  0  0  0  0  0
    3.0651   -0.4056    0.3189 O   0  0  0  0  0  0  0  0  0  0  0  0
    2.3422    0.5061   -0.3811 C   0  0  0  0  0  0  0  0  0  0  0  0
    2.8201    1.4150   -1.0507 O   0  0  0  0  0  0  0  0  0  0  0  0
    0.9248    0.2800   -0.2452 C   0  0  0  0  0  0  0  0  0  0  0  0
    0.0165    1.0998   -0.8808 N   0  0  0  0  0  0  0  0  0  0  0  0
   -1.2776    0.7120   -0.6208 C   0  0  0  0  0  0  0  0  0  0  0  0
   -2.4842    1.2673   -1.0652 C   0  0  0  0  0  0  0  0  0  0  0  0
   -3.6743    0.6653   -0.6423 C   0  0  0  0  0  0  0  0  0  0  0  0
   -3.6588   -0.4503    0.1938 C   0  0  0  0  0  0  0  0  0  0  0  0
   -5.1750   -1.1296    0.6669 Cl  0  0  0  0  0  0  0  0  0  0  0  0
   -2.4393   -0.9857    0.6236 C   0  0  0  0  0  0  0  0  0  0  0  0
   -2.2999   -2.3533    1.6514 Cl  0  0  0  0  0  0  0  0  0  0  0  0
   -1.2168   -0.4050    0.2174 C   0  0  0  0  0  0  0  0  0  0  0  0
    0.1711   -0.6525    0.4356 C   0  0  0  0  0  0  0  0  0  0  0  0
    0.7078   -1.6322    1.1821 O   0  0  0  0  0  0  0  0  0  0  0  0
    4.7745    0.7384    0.6277 H   0  0  0  0  0  0  0  0  0  0  0  0
    4.9549   -1.0165    0.8211 H   0  0  0  0  0  0  0  0  0  0  0  0
    4.8084   -0.3414   -0.8137 H   0  0  0  0  0  0  0  0  0  0  0  0
    0.2866    1.8839   -1.4617 H   0  0  0  0  0  0  0  0  0  0  0  0
   -2.5039    2.1366   -1.7169 H   0  0  0  0  0  0  0  0  0  0  0  0
   -4.6226    1.0820   -0.9768 H   0  0  0  0  0  0  0  0  0  0  0  0
    0.0031   -2.1796    1.5756 H   0  0  0  0  0  0  0  0  0  0  0  0
  1  2  1  0
  2  3  1  0
  3  4  2  0
  3  5  1  0
  5  6  1  0
  6  7  1  0
  7  8  2  0
  8  9  1  0
  9 10  2  0
 10 11  1  0
 10 12  1  0
 12 13  1  0
 12 14  2  0
 14 15  1  0
 15 16  1  0
 15  5  2  0
 14  7  1  0
  1 17  1  0
  1 18  1  0
  1 19  1  0
  6 20  1  0
  8 21  1  0
  9 22  1  0
 16 23  1  0
M  END
>  <Unnamed: 0>  (5) 
312

>  <ID>  (5) 
TRAIN_0312

>  <Canonical_Smiles>  (5) 
COC(=O)c1[nH]c2ccc(Cl)c(Cl)c2c1O

>  <Inhibition>  (5) 
24.5

>  <TDC_conf_true_inhibitor>  (5) 
1

>  <TDC_conf_non_inhibitor>  (5) 
0

>  <split>  (5) 
1

$$$$
5
     RDKit          3D

 35 36  0  0  0  0  0  0  0  0999 V2000
    5.8202   -0.3181   -0.2914 C   0  0  0  0  0  0  0  0  0  0  0  0
    4.4037   -0.2006   -0.1538 O   0  0  0  0  0  0  0  0  0  0  0  0
    3.7055   -0.6630   -1.2362 C   0  0  0  0  0  0  0  0  0  0  0  0
    4.2273   -1.1346   -2.2374 O   0  0  0  0  0  0  0  0  0  0  0  0
    2.2944   -0.4972   -0.9880 C   0  0  0  0  0  0  0  0  0  0  0  0
    1.7737    0.0423    0.1693 N   0  0  0  0  0  0  0  0  0  0  0  0
    0.3989    0.0791    0.1322 C   0  0  0  0  0  0  0  0  0  0  0  0
   -0.5070    0.5540    1.0858 C   0  0  0  0  0  0  0  0  0  0  0  0
   -0.0130    1.0629    2.2578 O   0  0  0  0  0  0  0  0  0  0  0  0
   -0.4840    2.3858    2.5170 C   0  0  0  0  0  0  0  0  0  0  0  0
   -1.8744    0.4139    0.7908 C   0  0  0  0  0  0  0  0  0  0  0  0
   -2.8112    0.8284    1.7126 O   0  0  0  0  0  0  0  0  0  0  0  0
   -3.1484   -0.2597    2.5735 C   0  0  0  0  0  0  0  0  0  0  0  0
   -2.3132   -0.0992   -0.4424 C   0  0  0  0  0  0  0  0  0  0  0  0
   -3.6739   -0.1495   -0.6219 O   0  0  0  0  0  0  0  0  0  0  0  0
   -4.1533   -0.5271   -1.9049 C   0  0  0  0  0  0  0  0  0  0  0  0
   -1.3726   -0.5388   -1.3863 C   0  0  0  0  0  0  0  0  0  0  0  0
    0.0061   -0.4578   -1.0900 C   0  0  0  0  0  0  0  0  0  0  0  0
    1.2035   -0.8078   -1.7718 C   0  0  0  0  0  0  0  0  0  0  0  0
    1.3088   -1.3591   -2.9911 O   0  0  0  0  0  0  0  0  0  0  0  0
    6.1742    0.2740   -1.1412 H   0  0  0  0  0  0  0  0  0  0  0  0
    6.1100   -1.3680   -0.4001 H   0  0  0  0  0  0  0  0  0  0  0  0
    6.2818    0.0746    0.6188 H   0  0  0  0  0  0  0  0  0  0  0  0
    2.3303    0.3669    0.9493 H   0  0  0  0  0  0  0  0  0  0  0  0
   -1.3852    2.3529    3.1359 H   0  0  0  0  0  0  0  0  0  0  0  0
    0.2906    2.9063    3.0888 H   0  0  0  0  0  0  0  0  0  0  0  0
   -0.6640    2.9596    1.6003 H   0  0  0  0  0  0  0  0  0  0  0  0
   -3.8961    0.0991    3.2871 H   0  0  0  0  0  0  0  0  0  0  0  0
   -2.2763   -0.6013    3.1419 H   0  0  0  0  0  0  0  0  0  0  0  0
   -3.5878   -1.0930    2.0144 H   0  0  0  0  0  0  0  0  0  0  0  0
   -3.9050   -1.5704   -2.1249 H   0  0  0  0  0  0  0  0  0  0  0  0
   -3.7754    0.1433   -2.6839 H   0  0  0  0  0  0  0  0  0  0  0  0
   -5.2441   -0.4411   -1.8928 H   0  0  0  0  0  0  0  0  0  0  0  0
   -1.6747   -0.9543   -2.3391 H   0  0  0  0  0  0  0  0  0  0  0  0
    0.4305   -1.5024   -3.3785 H   0  0  0  0  0  0  0  0  0  0  0  0
  1  2  1  0
  2  3  1  0
  3  4  2  0
  3  5  1  0
  5  6  1  0
  6  7  1  0
  7  8  2  0
  8  9  1  0
  9 10  1  0
  8 11  1  0
 11 12  1  0
 12 13  1  0
 11 14  2  0
 14 15  1  0
 15 16  1  0
 14 17  1  0
 17 18  2  0
 18 19  1  0
 19 20  1  0
 19  5  2  0
 18  7  1  0
  1 21  1  0
  1 22  1  0
  1 23  1  0
  6 24  1  0
 10 25  1  0
 10 26  1  0
 10 27  1  0
 13 28  1  0
 13 29  1  0
 13 30  1  0
 16 31  1  0
 16 32  1  0
 16 33  1  0
 17 34  1  0
 20 35  1  0
M  END
>  <Unnamed: 0>  (6) 
317

>  <ID>  (6) 
TRAIN_0317

>  <Canonical_Smiles>  (6) 
COC(=O)c1[nH]c2c(OC)c(OC)c(OC)cc2c1O

>  <Inhibition>  (6) 
27.5

>  <TDC_conf_true_inhibitor>  (6) 
0

>  <TDC_conf_non_inhibitor>  (6) 
1

>  <split>  (6) 
1

$$$$
6
     RDKit          3D

 42 43  0  0  0  0  0  0  0  0999 V2000
    4.7491   -2.2360    1.3151 C   0  0  0  0  0  0  0  0  0  0  0  0
    4.7799   -0.7286    1.1475 C   0  0  0  0  0  0  0  0  0  0  0  0
    3.9082   -0.3324    0.0782 O   0  0  0  0  0  0  0  0  0  0  0  0
    2.6027   -0.1171    0.4246 C   0  0  0  0  0  0  0  0  0  0  0  0
    2.1446   -0.2773    1.5476 O   0  0  0  0  0  0  0  0  0  0  0  0
    1.8320    0.3080   -0.8006 C   0  0  0  0  0  0  0  0  0  0  0  0
    0.4411    0.6460   -0.5071 N   0  0  0  0  0  0  0  0  0  0  0  0
    0.0089    1.8476    0.0371 C   0  0  0  0  0  0  0  0  0  0  0  0
   -1.3745    1.7695    0.0939 C   0  0  0  0  0  0  0  0  0  0  0  0
   -1.7892    0.5048   -0.3959 C   0  0  0  0  0  0  0  0  0  0  0  0
   -3.0393   -0.1295   -0.5575 C   0  0  0  0  0  0  0  0  0  0  0  0
   -4.2237    0.5002   -0.2282 O   0  0  0  0  0  0  0  0  0  0  0  0
   -4.4598    0.3735    1.1744 C   0  0  0  0  0  0  0  0  0  0  0  0
   -3.1200   -1.4029   -1.1343 C   0  0  0  0  0  0  0  0  0  0  0  0
   -1.9610   -2.0778   -1.5029 C   0  0  0  0  0  0  0  0  0  0  0  0
   -1.9057   -3.3299   -2.0581 O   0  0  0  0  0  0  0  0  0  0  0  0
   -3.1456   -3.9919   -2.2757 C   0  0  0  0  0  0  0  0  0  0  0  0
   -0.7058   -1.4795   -1.3182 C   0  0  0  0  0  0  0  0  0  0  0  0
   -0.6364   -0.1829   -0.7748 C   0  0  0  0  0  0  0  0  0  0  0  0
    0.8701    2.9343    0.4600 C   0  0  0  0  0  0  0  0  0  0  0  0
    2.0911    2.9495    0.3668 O   0  0  0  0  0  0  0  0  0  0  0  0
    0.1225    3.9505    0.9756 O   0  0  0  0  0  0  0  0  0  0  0  0
    0.8892    5.0646    1.4306 C   0  0  0  0  0  0  0  0  0  0  0  0
    5.4519   -2.5548    2.0900 H   0  0  0  0  0  0  0  0  0  0  0  0
    5.0110   -2.7324    0.3749 H   0  0  0  0  0  0  0  0  0  0  0  0
    3.7471   -2.5810    1.5883 H   0  0  0  0  0  0  0  0  0  0  0  0
    5.7901   -0.4096    0.8710 H   0  0  0  0  0  0  0  0  0  0  0  0
    4.5251   -0.2149    2.0816 H   0  0  0  0  0  0  0  0  0  0  0  0
    1.8451   -0.5086   -1.5277 H   0  0  0  0  0  0  0  0  0  0  0  0
    2.2968    1.1795   -1.2701 H   0  0  0  0  0  0  0  0  0  0  0  0
   -2.0298    2.5478    0.4654 H   0  0  0  0  0  0  0  0  0  0  0  0
   -5.4417    0.8066    1.3879 H   0  0  0  0  0  0  0  0  0  0  0  0
   -3.7146    0.9248    1.7569 H   0  0  0  0  0  0  0  0  0  0  0  0
   -4.4806   -0.6784    1.4810 H   0  0  0  0  0  0  0  0  0  0  0  0
   -4.1049   -1.8339   -1.2723 H   0  0  0  0  0  0  0  0  0  0  0  0
   -2.9291   -4.9687   -2.7190 H   0  0  0  0  0  0  0  0  0  0  0  0
   -3.7710   -3.4370   -2.9829 H   0  0  0  0  0  0  0  0  0  0  0  0
   -3.6721   -4.1646   -1.3312 H   0  0  0  0  0  0  0  0  0  0  0  0
    0.1880   -2.0246   -1.6055 H   0  0  0  0  0  0  0  0  0  0  0  0
    1.5654    4.7619    2.2362 H   0  0  0  0  0  0  0  0  0  0  0  0
    0.1971    5.8143    1.8240 H   0  0  0  0  0  0  0  0  0  0  0  0
    1.4476    5.5108    0.6016 H   0  0  0  0  0  0  0  0  0  0  0  0
  1  2  1  0
  2  3  1  0
  3  4  1  0
  4  5  2  0
  4  6  1  0
  6  7  1  0
  7  8  1  0
  8  9  2  0
  9 10  1  0
 10 11  2  0
 11 12  1  0
 12 13  1  0
 11 14  1  0
 14 15  2  0
 15 16  1  0
 16 17  1  0
 15 18  1  0
 18 19  2  0
  8 20  1  0
 20 21  2  0
 20 22  1  0
 22 23  1  0
 19  7  1  0
 19 10  1  0
  1 24  1  0
  1 25  1  0
  1 26  1  0
  2 27  1  0
  2 28  1  0
  6 29  1  0
  6 30  1  0
  9 31  1  0
 13 32  1  0
 13 33  1  0
 13 34  1  0
 14 35  1  0
 17 36  1  0
 17 37  1  0
 17 38  1  0
 18 39  1  0
 23 40  1  0
 23 41  1  0
 23 42  1  0
M  END
>  <Unnamed: 0>  (7) 
382

>  <ID>  (7) 
TRAIN_0382

>  <Canonical_Smiles>  (7) 
CCOC(=O)Cn1c(cc2c(OC)cc(OC)cc12)C(=O)OC

>  <Inhibition>  (7) 
28.8

>  <TDC_conf_true_inhibitor>  (7) 
0

>  <TDC_conf_non_inhibitor>  (7) 
1

>  <split>  (7) 
1

$$$$
7
     RDKit          3D

 38 39  0  0  0  0  0  0  0  0999 V2000
   -4.6185   -3.1662    1.9464 C   0  0  0  0  0  0  0  0  0  0  0  0
   -3.2296   -2.9612    1.7218 O   0  0  0  0  0  0  0  0  0  0  0  0
   -2.8728   -1.8389    1.0228 C   0  0  0  0  0  0  0  0  0  0  0  0
   -3.7459   -0.8829    0.5119 C   0  0  0  0  0  0  0  0  0  0  0  0
   -3.2682    0.2310   -0.1912 C   0  0  0  0  0  0  0  0  0  0  0  0
   -1.8823    0.3631   -0.3713 C   0  0  0  0  0  0  0  0  0  0  0  0
   -0.9798   -0.5795    0.1319 C   0  0  0  0  0  0  0  0  0  0  0  0
   -1.4924   -1.6912    0.8358 C   0  0  0  0  0  0  0  0  0  0  0  0
    0.3395   -0.1491   -0.2186 C   0  0  0  0  0  0  0  0  0  0  0  0
    1.5898   -0.8093    0.0918 C   0  0  0  0  0  0  0  0  0  0  0  0
    2.7070   -0.2929   -0.3072 N   0  0  0  0  0  0  0  0  0  0  0  0
    3.7621   -1.1195    0.1177 O   0  0  0  0  0  0  0  0  0  0  0  0
    4.9975   -0.5336   -0.2962 C   0  0  0  0  0  0  0  0  0  0  0  0
    6.1056   -1.4583    0.1062 C   0  0  0  0  0  0  0  0  0  0  0  0
    7.1429   -1.1161    0.8819 C   0  0  0  0  0  0  0  0  0  0  0  0
    0.1990    1.0335   -0.9193 C   0  0  0  0  0  0  0  0  0  0  0  0
   -1.1352    1.3349   -1.0065 N   0  0  0  0  0  0  0  0  0  0  0  0
   -1.6639    2.5053   -1.7002 C   0  0  0  0  0  0  0  0  0  0  0  0
   -1.8359    3.6722   -0.7709 C   0  0  0  0  0  0  0  0  0  0  0  0
   -1.2647    4.8718   -0.9440 C   0  0  0  0  0  0  0  0  0  0  0  0
   -5.1581   -3.2848    1.0009 H   0  0  0  0  0  0  0  0  0  0  0  0
   -4.7318   -4.0957    2.5126 H   0  0  0  0  0  0  0  0  0  0  0  0
   -5.0452   -2.3565    2.5475 H   0  0  0  0  0  0  0  0  0  0  0  0
   -4.8200   -0.9688    0.6416 H   0  0  0  0  0  0  0  0  0  0  0  0
   -3.9642    0.9678   -0.5796 H   0  0  0  0  0  0  0  0  0  0  0  0
   -0.8192   -2.4423    1.2396 H   0  0  0  0  0  0  0  0  0  0  0  0
    1.5518   -1.7497    0.6683 H   0  0  0  0  0  0  0  0  0  0  0  0
    4.9991   -0.4182   -1.3860 H   0  0  0  0  0  0  0  0  0  0  0  0
    5.1053    0.4529    0.1689 H   0  0  0  0  0  0  0  0  0  0  0  0
    6.0396   -2.4751   -0.2732 H   0  0  0  0  0  0  0  0  0  0  0  0
    7.9099   -1.8418    1.1345 H   0  0  0  0  0  0  0  0  0  0  0  0
    7.2474   -0.1136    1.2856 H   0  0  0  0  0  0  0  0  0  0  0  0
    0.9497    1.6808   -1.3557 H   0  0  0  0  0  0  0  0  0  0  0  0
   -0.9772    2.7351   -2.5234 H   0  0  0  0  0  0  0  0  0  0  0  0
   -2.6248    2.2282   -2.1459 H   0  0  0  0  0  0  0  0  0  0  0  0
   -2.4698    3.5129    0.0993 H   0  0  0  0  0  0  0  0  0  0  0  0
   -1.4280    5.6718   -0.2277 H   0  0  0  0  0  0  0  0  0  0  0  0
   -0.6184    5.0838   -1.7904 H   0  0  0  0  0  0  0  0  0  0  0  0
  1  2  1  0
  2  3  1  0
  3  4  2  0
  4  5  1  0
  5  6  2  0
  6  7  1  0
  7  8  2  0
  7  9  1  0
  9 10  1  0
 10 11  2  0
 11 12  1  0
 12 13  1  0
 13 14  1  0
 14 15  2  0
  9 16  2  0
 16 17  1  0
 17 18  1  0
 18 19  1  0
 19 20  2  0
  8  3  1  0
 17  6  1  0
  1 21  1  0
  1 22  1  0
  1 23  1  0
  4 24  1  0
  5 25  1  0
  8 26  1  0
 10 27  1  0
 13 28  1  0
 13 29  1  0
 14 30  1  0
 15 31  1  0
 15 32  1  0
 16 33  1  0
 18 34  1  0
 18 35  1  0
 19 36  1  0
 20 37  1  0
 20 38  1  0
M  END
>  <Unnamed: 0>  (8) 
418

>  <ID>  (8) 
TRAIN_0418

>  <Canonical_Smiles>  (8) 
COc1ccc2c(c1)c(\C=N\OCC=C)cn2CC=C

>  <Inhibition>  (8) 
78.6

>  <TDC_conf_true_inhibitor>  (8) 
1

>  <TDC_conf_non_inhibitor>  (8) 
0

>  <split>  (8) 
1

$$$$
8
     RDKit          3D

 37 38  0  0  0  0  0  0  0  0999 V2000
    4.2630   -2.8035    0.4889 C   0  0  0  0  0  0  0  0  0  0  0  0
    3.7171   -1.4717    0.9656 C   0  0  0  0  0  0  0  0  0  0  0  0
    2.9497   -0.8971   -0.0984 O   0  0  0  0  0  0  0  0  0  0  0  0
    2.3487    0.2890    0.2271 C   0  0  0  0  0  0  0  0  0  0  0  0
    2.5118    0.8799    1.2865 O   0  0  0  0  0  0  0  0  0  0  0  0
    1.5350    0.7692   -0.9496 C   0  0  0  0  0  0  0  0  0  0  0  0
    0.6859    1.9122   -0.6322 N   0  0  0  0  0  0  0  0  0  0  0  0
    1.1282    3.2041   -0.8157 C   0  0  0  0  0  0  0  0  0  0  0  0
    0.0910    4.0576   -0.5486 C   0  0  0  0  0  0  0  0  0  0  0  0
   -1.0308    3.2670   -0.1906 C   0  0  0  0  0  0  0  0  0  0  0  0
   -2.3506    3.6145    0.1646 C   0  0  0  0  0  0  0  0  0  0  0  0
   -3.2733    2.6215    0.4808 C   0  0  0  0  0  0  0  0  0  0  0  0
   -2.8913    1.2872    0.4543 C   0  0  0  0  0  0  0  0  0  0  0  0
   -1.5805    0.8986    0.1035 C   0  0  0  0  0  0  0  0  0  0  0  0
   -1.2403   -0.5410    0.1584 C   0  0  0  0  0  0  0  0  0  0  0  0
   -0.1719   -0.9910    0.5331 O   0  0  0  0  0  0  0  0  0  0  0  0
   -2.2922   -1.2712   -0.2938 O   0  0  0  0  0  0  0  0  0  0  0  0
   -2.0706   -2.6865   -0.2905 C   0  0  0  0  0  0  0  0  0  0  0  0
   -3.3245   -3.3625   -0.8094 C   0  0  0  0  0  0  0  0  0  0  0  0
   -0.6437    1.9127   -0.2263 C   0  0  0  0  0  0  0  0  0  0  0  0
    3.4462   -3.4755    0.2055 H   0  0  0  0  0  0  0  0  0  0  0  0
    4.8872   -2.6682   -0.4006 H   0  0  0  0  0  0  0  0  0  0  0  0
    4.8599   -3.2826    1.2699 H   0  0  0  0  0  0  0  0  0  0  0  0
    3.0790   -1.6271    1.8429 H   0  0  0  0  0  0  0  0  0  0  0  0
    4.5460   -0.8035    1.2242 H   0  0  0  0  0  0  0  0  0  0  0  0
    0.9091   -0.0208   -1.3684 H   0  0  0  0  0  0  0  0  0  0  0  0
    2.2295    1.0878   -1.7362 H   0  0  0  0  0  0  0  0  0  0  0  0
    2.1468    3.4097   -1.1198 H   0  0  0  0  0  0  0  0  0  0  0  0
    0.1304    5.1374   -0.6067 H   0  0  0  0  0  0  0  0  0  0  0  0
   -2.6474    4.6598    0.1936 H   0  0  0  0  0  0  0  0  0  0  0  0
   -4.2883    2.8938    0.7585 H   0  0  0  0  0  0  0  0  0  0  0  0
   -3.6273    0.5331    0.7287 H   0  0  0  0  0  0  0  0  0  0  0  0
   -1.8622   -3.0260    0.7303 H   0  0  0  0  0  0  0  0  0  0  0  0
   -1.2227   -2.9291   -0.9409 H   0  0  0  0  0  0  0  0  0  0  0  0
   -4.1857   -3.1114   -0.1813 H   0  0  0  0  0  0  0  0  0  0  0  0
   -3.2038   -4.4492   -0.8256 H   0  0  0  0  0  0  0  0  0  0  0  0
   -3.5576   -3.0171   -1.8220 H   0  0  0  0  0  0  0  0  0  0  0  0
  1  2  1  0
  2  3  1  0
  3  4  1  0
  4  5  2  0
  4  6  1  0
  6  7  1  0
  7  8  1  0
  8  9  2  0
  9 10  1  0
 10 11  2  0
 11 12  1  0
 12 13  2  0
 13 14  1  0
 14 15  1  0
 15 16  2  0
 15 17  1  0
 17 18  1  0
 18 19  1  0
 14 20  2  0
 20  7  1  0
 20 10  1  0
  1 21  1  0
  1 22  1  0
  1 23  1  0
  2 24  1  0
  2 25  1  0
  6 26  1  0
  6 27  1  0
  8 28  1  0
  9 29  1  0
 11 30  1  0
 12 31  1  0
 13 32  1  0
 18 33  1  0
 18 34  1  0
 19 35  1  0
 19 36  1  0
 19 37  1  0
M  END
>  <Unnamed: 0>  (9) 
467

>  <ID>  (9) 
TRAIN_0467

>  <Canonical_Smiles>  (9) 
CCOC(=O)Cn1ccc2cccc(C(=O)OCC)c12

>  <Inhibition>  (9) 
36.1

>  <TDC_conf_true_inhibitor>  (9) 
0

>  <TDC_conf_non_inhibitor>  (9) 
1

>  <split>  (9) 
1

$$$$
9
     RDKit          3D

 25 26  0  0  0  0  0  0  0  0999 V2000
    4.4588    0.2099    0.7516 C   0  0  0  0  0  0  0  0  0  0  0  0
    3.8268    0.4749   -0.6019 C   0  0  0  0  0  0  0  0  0  0  0  0
    2.4067    0.6213   -0.4647 O   0  0  0  0  0  0  0  0  0  0  0  0
    1.6865   -0.5320   -0.5089 C   0  0  0  0  0  0  0  0  0  0  0  0
    2.1494   -1.6559   -0.6484 O   0  0  0  0  0  0  0  0  0  0  0  0
    0.2813   -0.2456   -0.3630 C   0  0  0  0  0  0  0  0  0  0  0  0
   -0.3956    0.9501   -0.1968 C   0  0  0  0  0  0  0  0  0  0  0  0
   -1.7862    0.6700   -0.1029 C   0  0  0  0  0  0  0  0  0  0  0  0
   -2.9335    1.4670    0.0676 C   0  0  0  0  0  0  0  0  0  0  0  0
   -4.1924    0.8548    0.1203 C   0  0  0  0  0  0  0  0  0  0  0  0
   -4.3195   -0.5313    0.0058 C   0  0  0  0  0  0  0  0  0  0  0  0
   -5.9157   -1.1944    0.0828 Cl  0  0  0  0  0  0  0  0  0  0  0  0
   -3.1882   -1.3437   -0.1647 C   0  0  0  0  0  0  0  0  0  0  0  0
   -3.2736   -3.0601   -0.3125 Cl  0  0  0  0  0  0  0  0  0  0  0  0
   -1.9356   -0.7114   -0.2149 C   0  0  0  0  0  0  0  0  0  0  0  0
   -0.6725   -1.2378   -0.3708 N   0  0  0  0  0  0  0  0  0  0  0  0
    4.1983    1.0036    1.4595 H   0  0  0  0  0  0  0  0  0  0  0  0
    4.0941   -0.7297    1.1786 H   0  0  0  0  0  0  0  0  0  0  0  0
    5.5478    0.1555    0.6672 H   0  0  0  0  0  0  0  0  0  0  0  0
    4.2078    1.4180   -1.0071 H   0  0  0  0  0  0  0  0  0  0  0  0
    4.0797   -0.3103   -1.3237 H   0  0  0  0  0  0  0  0  0  0  0  0
    0.0664    1.9287   -0.1477 H   0  0  0  0  0  0  0  0  0  0  0  0
   -2.8475    2.5468    0.1579 H   0  0  0  0  0  0  0  0  0  0  0  0
   -5.0758    1.4759    0.2522 H   0  0  0  0  0  0  0  0  0  0  0  0
   -0.4676   -2.2244   -0.4774 H   0  0  0  0  0  0  0  0  0  0  0  0
  1  2  1  0
  2  3  1  0
  3  4  1  0
  4  5  2  0
  4  6  1  0
  6  7  2  0
  7  8  1  0
  8  9  2  0
  9 10  1  0
 10 11  2  0
 11 12  1  0
 11 13  1  0
 13 14  1  0
 13 15  2  0
 15 16  1  0
 16  6  1  0
 15  8  1  0
  1 17  1  0
  1 18  1  0
  1 19  1  0
  2 20  1  0
  2 21  1  0
  7 22  1  0
  9 23  1  0
 10 24  1  0
 16 25  1  0
M  END
>  <Unnamed: 0>  (10) 
673

>  <ID>  (10) 
TRAIN_0673

>  <Canonical_Smiles>  (10) 
CCOC(=O)c1cc2ccc(Cl)c(Cl)c2[nH]1

>  <Inhibition>  (10) 
35.6

>  <TDC_conf_true_inhibitor>  (10) 
0

>  <TDC_conf_non_inhibitor>  (10) 
1

>  <split>  (10) 
1

$$$$
10
     RDKit          3D

 52 53  0  0  0  0  0  0  0  0999 V2000
    5.2101    2.5557    0.6021 C   0  0  0  0  0  0  0  0  0  0  0  0
    3.8233    2.0073    0.8762 C   0  0  0  0  0  0  0  0  0  0  0  0
    3.6681    1.4533    2.5748 S   0  0  0  0  0  6  0  0  0  0  0  0
    4.4791    0.2718    2.7614 O   0  0  0  0  0  0  0  0  0  0  0  0
    3.8165    2.6092    3.4339 O   0  0  0  0  0  0  0  0  0  0  0  0
    2.0350    1.0426    2.6731 N   0  0  0  0  0  0  0  0  0  0  0  0
    1.4805    0.0733    1.7870 C   0  0  0  0  0  0  0  0  0  0  0  0
    1.9961   -1.2090    1.6938 C   0  0  0  0  0  0  0  0  0  0  0  0
    1.4520   -2.1366    0.8010 C   0  0  0  0  0  0  0  0  0  0  0  0
    0.3543   -1.7577    0.0028 C   0  0  0  0  0  0  0  0  0  0  0  0
   -0.2194   -0.4846    0.1143 C   0  0  0  0  0  0  0  0  0  0  0  0
    0.3702    0.4363    1.0172 C   0  0  0  0  0  0  0  0  0  0  0  0
   -1.3547   -0.4271   -0.7721 C   0  0  0  0  0  0  0  0  0  0  0  0
   -2.2643    0.7014   -1.0179 C   0  0  0  0  0  0  0  0  0  0  0  0
   -3.1043    0.7128   -1.9081 O   0  0  0  0  0  0  0  0  0  0  0  0
   -2.0709    1.7398   -0.1539 O   0  0  0  0  0  0  0  0  0  0  0  0
   -2.9365    2.8726   -0.3349 C   0  0  0  0  0  0  0  0  0  0  0  0
   -2.3639    3.8309   -1.3795 C   0  0  0  0  0  0  0  0  0  0  0  0
   -3.1886    4.9752   -1.5902 O   0  0  0  0  0  0  0  0  0  0  0  0
   -3.0994    5.9418   -0.5516 C   0  0  0  0  0  0  0  0  0  0  0  0
   -1.4705   -1.6896   -1.3612 C   0  0  0  0  0  0  0  0  0  0  0  0
   -2.5407   -2.2083   -2.2679 C   0  0  0  0  0  0  0  0  0  0  0  0
   -0.3527   -2.4173   -0.9882 N   0  0  0  0  0  0  0  0  0  0  0  0
   -0.0328   -4.0536   -1.4412 S   0  0  0  0  0  6  0  0  0  0  0  0
   -0.6715   -4.2440   -2.7290 O   0  0  0  0  0  0  0  0  0  0  0  0
    1.4014   -4.2246   -1.3091 O   0  0  0  0  0  0  0  0  0  0  0  0
   -0.8506   -5.0702   -0.2260 C   0  0  0  0  0  0  0  0  0  0  0  0
   -0.6375   -6.5458   -0.4980 C   0  0  0  0  0  0  0  0  0  0  0  0
    5.4270    3.4184    1.2411 H   0  0  0  0  0  0  0  0  0  0  0  0
    5.9780    1.7983    0.7914 H   0  0  0  0  0  0  0  0  0  0  0  0
    5.2926    2.8745   -0.4423 H   0  0  0  0  0  0  0  0  0  0  0  0
    3.6236    1.1545    0.2224 H   0  0  0  0  0  0  0  0  0  0  0  0
    3.0695    2.7825    0.7113 H   0  0  0  0  0  0  0  0  0  0  0  0
    1.4573    1.8480    2.9149 H   0  0  0  0  0  0  0  0  0  0  0  0
    2.8350   -1.5178    2.3148 H   0  0  0  0  0  0  0  0  0  0  0  0
    1.9051   -3.1225    0.7381 H   0  0  0  0  0  0  0  0  0  0  0  0
   -0.0434    1.4347    1.1175 H   0  0  0  0  0  0  0  0  0  0  0  0
   -3.0054    3.3693    0.6379 H   0  0  0  0  0  0  0  0  0  0  0  0
   -3.9595    2.5687   -0.5916 H   0  0  0  0  0  0  0  0  0  0  0  0
   -2.2878    3.3104   -2.3416 H   0  0  0  0  0  0  0  0  0  0  0  0
   -1.3414    4.1336   -1.1203 H   0  0  0  0  0  0  0  0  0  0  0  0
   -2.0587    6.2382   -0.3811 H   0  0  0  0  0  0  0  0  0  0  0  0
   -3.5407    5.5603    0.3745 H   0  0  0  0  0  0  0  0  0  0  0  0
   -3.6660    6.8250   -0.8596 H   0  0  0  0  0  0  0  0  0  0  0  0
   -2.2223   -2.1451   -3.3131 H   0  0  0  0  0  0  0  0  0  0  0  0
   -2.8079   -3.2412   -2.0272 H   0  0  0  0  0  0  0  0  0  0  0  0
   -3.4699   -1.6414   -2.1634 H   0  0  0  0  0  0  0  0  0  0  0  0
   -1.9162   -4.8254   -0.2527 H   0  0  0  0  0  0  0  0  0  0  0  0
   -0.4461   -4.8023    0.7543 H   0  0  0  0  0  0  0  0  0  0  0  0
   -1.1309   -7.1498    0.2712 H   0  0  0  0  0  0  0  0  0  0  0  0
    0.4285   -6.7967   -0.4978 H   0  0  0  0  0  0  0  0  0  0  0  0
   -1.0483   -6.8295   -1.4733 H   0  0  0  0  0  0  0  0  0  0  0  0
  1  2  1  0
  2  3  1  0
  3  4  2  0
  3  5  2  0
  3  6  1  0
  6  7  1  0
  7  8  2  0
  8  9  1  0
  9 10  2  0
 10 11  1  0
 11 12  2  0
 11 13  1  0
 13 14  1  0
 14 15  2  0
 14 16  1  0
 16 17  1  0
 17 18  1  0
 18 19  1  0
 19 20  1  0
 13 21  2  0
 21 22  1  0
 21 23  1  0
 23 24  1  0
 24 25  2  0
 24 26  2  0
 24 27  1  0
 27 28  1  0
 12  7  1  0
 23 10  1  0
  1 29  1  0
  1 30  1  0
  1 31  1  0
  2 32  1  0
  2 33  1  0
  6 34  1  0
  8 35  1  0
  9 36  1  0
 12 37  1  0
 17 38  1  0
 17 39  1  0
 18 40  1  0
 18 41  1  0
 20 42  1  0
 20 43  1  0
 20 44  1  0
 22 45  1  0
 22 46  1  0
 22 47  1  0
 27 48  1  0
 27 49  1  0
 28 50  1  0
 28 51  1  0
 28 52  1  0
M  END
>  <Unnamed: 0>  (11) 
799

>  <ID>  (11) 
TRAIN_0799

>  <Canonical_Smiles>  (11) 
CCS(=O)(=O)Nc1ccc2c(c1)c(C(=O)OCCOC)c(C)n2S(=O)(=O)CC

>  <Inhibition>  (11) 
21.612894

>  <TDC_conf_true_inhibitor>  (11) 
1

>  <TDC_conf_non_inhibitor>  (11) 
0

>  <split>  (11) 
1

$$$$
11
     RDKit          3D

 40 42  0  0  0  0  0  0  0  0999 V2000
    0.9660   -4.1243    0.3240 C   0  0  0  0  0  0  0  0  0  0  0  0
    0.0641   -2.9195    0.3914 C   0  0  0  0  0  0  0  0  0  0  0  0
   -1.1559   -3.0623    0.5258 O   0  0  0  0  0  0  0  0  0  0  0  0
    0.6610   -1.5529    0.2655 C   0  0  0  0  0  0  0  0  0  0  0  0
   -0.0924   -0.5320   -0.2171 C   0  0  0  0  0  0  0  0  0  0  0  0
   -1.4234   -0.6893   -0.5942 N   0  0  0  0  0  0  0  0  0  0  0  0
   -2.2455    0.4470   -0.7697 N   0  0  0  0  0  0  0  0  0  0  0  0
   -3.1445    0.2308   -1.9260 C   0  0  0  0  0  0  0  0  0  0  0  0
   -4.5517   -0.2265   -1.5218 C   0  0  0  0  0  0  0  0  0  0  0  0
   -5.2185    0.7115   -0.6655 O   0  0  0  0  0  0  0  0  0  0  0  0
   -4.3187    1.4485    0.1743 C   0  0  0  0  0  0  0  0  0  0  0  0
   -3.0213    0.6867    0.4714 C   0  0  0  0  0  0  0  0  0  0  0  0
    0.4510    0.7261   -0.3669 N   0  0  0  0  0  0  0  0  0  0  0  0
    1.7630    1.0727   -0.0637 C   0  0  0  0  0  0  0  0  0  0  0  0
    2.2640    2.3709   -0.2456 C   0  0  0  0  0  0  0  0  0  0  0  0
    1.2501    3.6249   -0.8675 Cl  0  0  0  0  0  0  0  0  0  0  0  0
    3.5884    2.6837    0.0704 C   0  0  0  0  0  0  0  0  0  0  0  0
    4.4268    1.6833    0.5780 C   0  0  0  0  0  0  0  0  0  0  0  0
    3.9502    0.3819    0.7703 C   0  0  0  0  0  0  0  0  0  0  0  0
    2.6190    0.0906    0.4458 C   0  0  0  0  0  0  0  0  0  0  0  0
    2.0783   -1.2753    0.6434 C   0  0  0  0  0  0  0  0  0  0  0  0
    2.8042   -2.1387    1.1254 O   0  0  0  0  0  0  0  0  0  0  0  0
    5.8199    2.0059    0.9119 N   0  0  0  0  0  4  0  0  0  0  0  0
    6.5383    1.0884    1.3292 O   0  0  0  0  0  0  0  0  0  0  0  0
    6.1901    3.1770    0.7543 O   0  0  0  0  0  1  0  0  0  0  0  0
    1.7648   -3.9716   -0.4064 H   0  0  0  0  0  0  0  0  0  0  0  0
    1.3782   -4.3372    1.3130 H   0  0  0  0  0  0  0  0  0  0  0  0
    0.3822   -4.9877   -0.0104 H   0  0  0  0  0  0  0  0  0  0  0  0
   -1.8510   -1.5677   -0.2574 H   0  0  0  0  0  0  0  0  0  0  0  0
   -2.7092   -0.4685   -2.6506 H   0  0  0  0  0  0  0  0  0  0  0  0
   -3.2311    1.1952   -2.4423 H   0  0  0  0  0  0  0  0  0  0  0  0
   -4.5163   -1.1950   -1.0093 H   0  0  0  0  0  0  0  0  0  0  0  0
   -5.1754   -0.3542   -2.4125 H   0  0  0  0  0  0  0  0  0  0  0  0
   -4.8486    1.6683    1.1068 H   0  0  0  0  0  0  0  0  0  0  0  0
   -4.1063    2.4081   -0.3117 H   0  0  0  0  0  0  0  0  0  0  0  0
   -3.2850   -0.2629    0.9569 H   0  0  0  0  0  0  0  0  0  0  0  0
   -2.4054    1.2608    1.1723 H   0  0  0  0  0  0  0  0  0  0  0  0
   -0.2052    1.4079   -0.7412 H   0  0  0  0  0  0  0  0  0  0  0  0
    3.9521    3.6986   -0.0809 H   0  0  0  0  0  0  0  0  0  0  0  0
    4.5935   -0.4027    1.1672 H   0  0  0  0  0  0  0  0  0  0  0  0
  1  2  1  0
  2  3  2  0
  2  4  1  0
  4  5  2  0
  5  6  1  0
  6  7  1  0
  7  8  1  0
  8  9  1  0
  9 10  1  0
 10 11  1  0
 11 12  1  0
  5 13  1  0
 13 14  1  0
 14 15  2  0
 15 16  1  0
 15 17  1  0
 17 18  2  0
 18 19  1  0
 19 20  2  0
 20 21  1  0
 21 22  2  0
 18 23  1  0
 23 24  2  0
 23 25  1  0
 21  4  1  0
 12  7  1  0
 20 14  1  0
  1 26  1  0
  1 27  1  0
  1 28  1  0
  6 29  1  0
  8 30  1  0
  8 31  1  0
  9 32  1  0
  9 33  1  0
 11 34  1  0
 11 35  1  0
 12 36  1  0
 12 37  1  0
 13 38  1  0
 17 39  1  0
 19 40  1  0
M  CHG  2  23   1  25  -1
M  END
>  <Unnamed: 0>  (12) 
31

>  <ID>  (12) 
TRAIN_0031

>  <Canonical_Smiles>  (12) 
CC(=O)C1=C(NN2CCOCC2)Nc3c(Cl)cc(cc3C1=O)[N+](=O)[O-]

>  <Inhibition>  (12) 
27.0

>  <TDC_conf_true_inhibitor>  (12) 
0

>  <TDC_conf_non_inhibitor>  (12) 
1

>  <split>  (12) 
1

$$$$
12
     RDKit          3D

 56 59  0  0  0  0  0  0  0  0999 V2000
    0.6828    0.0000    0.0000 Cl  0  0  0  0  0  0  0  0  0  0  0  0
    7.5440    1.8473   -0.6963 C   0  0  0  0  0  0  0  0  0  0  0  0
    6.9532    2.5906   -1.5469 C   0  0  0  0  0  0  0  0  0  0  0  0
    5.5644    2.6307   -1.8518 C   0  0  0  0  0  0  0  0  0  0  0  0
    5.2094    3.4867   -2.7754 O   0  0  0  0  0  0  0  0  0  0  0  0
    4.5679    1.8373   -1.2487 N   0  0  0  0  0  0  0  0  0  0  0  0
    3.1515    1.9938   -1.6926 C   0  0  0  0  0  0  0  0  0  0  0  0
    2.6667    0.5477   -1.5011 C   0  0  0  0  0  0  0  0  0  0  0  0
    3.1853    0.3534   -0.0959 C   0  0  2  0  0  0  0  0  0  0  0  0
    4.6133    0.8365   -0.2216 C   0  0  0  0  0  0  0  0  0  0  0  0
    3.0925   -1.0057    0.3541 N   0  0  0  0  0  0  0  0  0  0  0  0
    1.9130   -1.7472    0.4656 C   0  0  0  0  0  0  0  0  0  0  0  0
    0.7275   -1.2068    0.1415 N   0  0  0  0  0  0  0  0  0  0  0  0
   -0.4310   -1.8819    0.2329 C   0  0  0  0  0  0  0  0  0  0  0  0
   -0.3900   -3.1521    0.6687 N   0  0  0  0  0  0  0  0  0  0  0  0
    0.7649   -3.7711    1.0158 C   0  0  0  0  0  0  0  0  0  0  0  0
    1.1048   -4.9898    1.4695 N   0  0  0  0  0  0  0  0  0  0  0  0
    2.4170   -5.0715    1.6530 N   0  0  0  0  0  0  0  0  0  0  0  0
    2.9699   -3.8943    1.3194 C   0  0  0  0  0  0  0  0  0  0  0  0
    1.9577   -3.0442    0.9109 C   0  0  0  0  0  0  0  0  0  0  0  0
   -1.7194   -1.3020   -0.1167 C   0  0  0  0  0  0  0  0  0  0  0  0
   -2.8781   -2.0365   -0.0052 C   0  0  0  0  0  0  0  0  0  0  0  0
   -4.1256   -1.5411   -0.3213 C   0  0  0  0  0  0  0  0  0  0  0  0
   -4.2204   -0.2293   -0.7773 C   0  0  0  0  0  0  0  0  0  0  0  0
   -5.4719    0.2758   -1.0972 O   0  0  0  0  0  0  0  0  0  0  0  0
   -6.1988    0.9105   -0.0751 C   0  0  0  0  0  0  0  0  0  0  0  0
   -5.6905    1.0312    1.2075 C   0  0  0  0  0  0  0  0  0  0  0  0
   -6.4159    1.6534    2.1879 C   0  0  0  0  0  0  0  0  0  0  0  0
   -7.6667    2.1645    1.8909 C   0  0  0  0  0  0  0  0  0  0  0  0
   -8.1842    2.0526    0.6239 C   0  0  0  0  0  0  0  0  0  0  0  0
   -7.4442    1.4269   -0.3443 C   0  0  0  0  0  0  0  0  0  0  0  0
   -3.0556    0.5063   -0.8884 C   0  0  0  0  0  0  0  0  0  0  0  0
   -1.8211   -0.0019   -0.5696 C   0  0  0  0  0  0  0  0  0  0  0  0
   -0.6828    0.0000    0.0000 H   0  0  0  0  0  0  0  0  0  0  0  0
    7.0972    1.1244   -0.0643 H   0  0  0  0  0  0  0  0  0  0  0  0
    8.6435    1.9298   -0.5679 H   0  0  0  0  0  0  0  0  0  0  0  0
    7.5969    3.2982   -2.1261 H   0  0  0  0  0  0  0  0  0  0  0  0
    2.6116    2.5947   -0.9362 H   0  0  0  0  0  0  0  0  0  0  0  0
    3.0783    2.3354   -2.7192 H   0  0  0  0  0  0  0  0  0  0  0  0
    1.5850    0.4606   -1.5927 H   0  0  0  0  0  0  0  0  0  0  0  0
    3.2303   -0.0564   -2.2407 H   0  0  0  0  0  0  0  0  0  0  0  0
    2.6440    1.0228    0.5689 H   0  0  0  0  0  0  0  0  0  0  0  0
    5.1848   -0.0386   -0.5992 H   0  0  0  0  0  0  0  0  0  0  0  0
    4.9792    1.2108    0.7617 H   0  0  0  0  0  0  0  0  0  0  0  0
    4.0031   -1.4640    0.6178 H   0  0  0  0  0  0  0  0  0  0  0  0
    0.4564   -5.7712    1.6575 H   0  0  0  0  0  0  0  0  0  0  0  0
    4.0373   -3.6631    1.3677 H   0  0  0  0  0  0  0  0  0  0  0  0
   -2.8390   -3.0628    0.3474 H   0  0  0  0  0  0  0  0  0  0  0  0
   -5.0310   -2.1210   -0.2322 H   0  0  0  0  0  0  0  0  0  0  0  0
   -4.7050    0.6161    1.3977 H   0  0  0  0  0  0  0  0  0  0  0  0
   -6.0130    1.7486    3.2027 H   0  0  0  0  0  0  0  0  0  0  0  0
   -8.2154    2.6502    2.6856 H   0  0  0  0  0  0  0  0  0  0  0  0
   -9.1722    2.4756    0.4574 H   0  0  0  0  0  0  0  0  0  0  0  0
   -7.8491    1.3353   -1.3502 H   0  0  0  0  0  0  0  0  0  0  0  0
   -3.1077    1.5413   -1.2455 H   0  0  0  0  0  0  0  0  0  0  0  0
   -0.9050    0.5637   -0.6525 H   0  0  0  0  0  0  0  0  0  0  0  0
  2  3  2  0
  3  4  1  0
  4  5  2  0
  4  6  1  0
  6  7  1  0
  7  8  1  0
  8  9  1  0
  9 10  1  0
  9 11  1  0
 11 12  1  0
 12 13  2  0
 13 14  1  0
 14 15  2  0
 15 16  1  0
 16 17  1  0
 17 18  1  0
 18 19  2  0
 19 20  1  0
 14 21  1  0
 21 22  2  0
 22 23  1  0
 23 24  2  0
 24 25  1  0
 25 26  1  0
 26 27  2  0
 27 28  1  0
 28 29  2  0
 29 30  1  0
 30 31  2  0
 24 32  1  0
 32 33  2  0
 10  6  1  0
 20 12  1  0
 20 16  2  0
 33 21  1  0
 31 26  1  0
  1 34  1  0
  2 35  1  0
  2 36  1  0
  3 37  1  0
  7 38  1  0
  7 39  1  0
  8 40  1  0
  8 41  1  0
  9 42  1  1
 10 43  1  0
 10 44  1  0
 11 45  1  0
 17 46  1  0
 19 47  1  0
 22 48  1  0
 23 49  1  0
 27 50  1  0
 28 51  1  0
 29 52  1  0
 30 53  1  0
 31 54  1  0
 32 55  1  0
 33 56  1  0
M  END
>  <Unnamed: 0>  (13) 
39

>  <ID>  (13) 
TRAIN_0039

>  <Canonical_Smiles>  (13) 
Cl.C=CC(=O)N1CC[C@H](C1)Nc2nc(nc3[nH]ncc23)c4ccc(Oc5ccccc5)cc4

>  <Inhibition>  (13) 
42.1

>  <TDC_conf_true_inhibitor>  (13) 
0

>  <TDC_conf_non_inhibitor>  (13) 
1

>  <split>  (13) 
1

$$$$
13
     RDKit          3D

 33 32  0  0  0  0  0  0  0  0999 V2000
    3.3841   -0.5105    2.4971 C   0  0  0  0  0  0  0  0  0  0  0  0
    2.6584   -1.2019    1.3597 C   0  0  0  0  0  0  0  0  0  0  0  0
    1.6597   -0.3067    0.8597 O   0  0  0  0  0  0  0  0  0  0  0  0
    0.9503   -0.8012   -0.1880 C   0  0  0  0  0  0  0  0  0  0  0  0
    1.0823   -1.9017   -0.6993 O   0  0  0  0  0  0  0  0  0  0  0  0
   -0.0736    0.2296   -0.6106 C   0  0  0  0  0  0  0  0  0  0  0  0
    0.4724    1.3273   -1.1937 C   0  0  0  0  0  0  0  0  0  0  0  0
   -0.3410    2.3730   -1.6636 O   0  0  0  0  0  0  0  0  0  0  0  0
    1.9553    1.5227   -1.4513 C   0  0  0  0  0  0  0  0  0  0  0  0
    2.6064    2.0188   -0.3711 F   0  0  0  0  0  0  0  0  0  0  0  0
    2.6089    0.4101   -1.8569 F   0  0  0  0  0  0  0  0  0  0  0  0
    2.1172    2.4469   -2.4428 F   0  0  0  0  0  0  0  0  0  0  0  0
   -1.4436   -0.0608   -0.3676 N   0  0  0  0  0  0  0  0  0  0  0  0
   -1.8877   -1.3485    0.2029 C   0  0  0  0  0  0  0  0  0  0  0  0
   -1.8222   -1.3193    1.7225 C   0  0  0  0  0  0  0  0  0  0  0  0
   -2.5414    0.8835   -0.6297 C   0  0  0  0  0  0  0  0  0  0  0  0
   -3.0430    0.7481   -2.0597 C   0  0  0  0  0  0  0  0  0  0  0  0
    3.8460    0.4198    2.1502 H   0  0  0  0  0  0  0  0  0  0  0  0
    4.1611   -1.1569    2.9146 H   0  0  0  0  0  0  0  0  0  0  0  0
    2.6830   -0.2400    3.2936 H   0  0  0  0  0  0  0  0  0  0  0  0
    3.3693   -1.4472    0.5627 H   0  0  0  0  0  0  0  0  0  0  0  0
    2.1825   -2.1184    1.7259 H   0  0  0  0  0  0  0  0  0  0  0  0
    0.2243    2.9896   -2.1716 H   0  0  0  0  0  0  0  0  0  0  0  0
   -2.9205   -1.5593   -0.1023 H   0  0  0  0  0  0  0  0  0  0  0  0
   -1.3012   -2.1845   -0.1896 H   0  0  0  0  0  0  0  0  0  0  0  0
   -0.8002   -1.1625    2.0799 H   0  0  0  0  0  0  0  0  0  0  0  0
   -2.4440   -0.5148    2.1286 H   0  0  0  0  0  0  0  0  0  0  0  0
   -2.1820   -2.2675    2.1342 H   0  0  0  0  0  0  0  0  0  0  0  0
   -3.3784    0.6826    0.0516 H   0  0  0  0  0  0  0  0  0  0  0  0
   -2.2495    1.9136   -0.4046 H   0  0  0  0  0  0  0  0  0  0  0  0
   -3.4286   -0.2599   -2.2457 H   0  0  0  0  0  0  0  0  0  0  0  0
   -3.8537    1.4596   -2.2449 H   0  0  0  0  0  0  0  0  0  0  0  0
   -2.2506    0.9365   -2.7900 H   0  0  0  0  0  0  0  0  0  0  0  0
  1  2  1  0
  2  3  1  0
  3  4  1  0
  4  5  2  0
  4  6  1  0
  6  7  2  0
  7  8  1  0
  7  9  1  0
  9 10  1  0
  9 11  1  0
  9 12  1  0
  6 13  1  0
 13 14  1  0
 14 15  1  0
 13 16  1  0
 16 17  1  0
  1 18  1  0
  1 19  1  0
  1 20  1  0
  2 21  1  0
  2 22  1  0
  8 23  1  0
 14 24  1  0
 14 25  1  0
 15 26  1  0
 15 27  1  0
 15 28  1  0
 16 29  1  0
 16 30  1  0
 17 31  1  0
 17 32  1  0
 17 33  1  0
M  END
>  <Unnamed: 0>  (14) 
43

>  <ID>  (14) 
TRAIN_0043

>  <Canonical_Smiles>  (14) 
CCOC(=O)\C(=C(\O)/C(F)(F)F)\N(CC)CC

>  <Inhibition>  (14) 
6.76

>  <TDC_conf_true_inhibitor>  (14) 
0

>  <TDC_conf_non_inhibitor>  (14) 
1

>  <split>  (14) 
1

$$$$
14
     RDKit          3D

 53 52  0  0  0  0  0  0  0  0999 V2000
    1.0479    3.9880    0.5256 C   0  0  0  0  0  0  0  0  0  0  0  0
    0.8833    2.9399   -0.5778 C   0  0  0  0  0  0  0  0  0  0  0  0
    0.5349    3.6365   -1.8964 C   0  0  0  0  0  0  0  0  0  0  0  0
   -0.1966    1.9124   -0.1700 C   0  0  0  0  0  0  0  0  0  0  0  0
   -0.1742    0.6218   -1.0107 C   0  0  2  0  0  0  0  0  0  0  0  0
   -1.5128    0.0826   -1.2449 N   0  0  0  0  0  0  0  0  0  0  0  0
   -2.3584   -0.2289   -0.2209 C   0  0  0  0  0  0  0  0  0  0  0  0
   -2.2164    0.1166    0.9403 O   0  0  0  0  0  0  0  0  0  0  0  0
   -3.3561   -0.9987   -0.7099 O   0  0  0  0  0  0  0  0  0  0  0  0
   -4.3874   -1.5196    0.1667 C   0  0  0  0  0  0  0  0  0  0  0  0
   -3.7970   -2.4586    1.2246 C   0  0  0  0  0  0  0  0  0  0  0  0
   -5.3064   -2.3362   -0.7549 C   0  0  0  0  0  0  0  0  0  0  0  0
   -5.2068   -0.3885    0.7974 C   0  0  0  0  0  0  0  0  0  0  0  0
    0.7064   -0.5426   -0.4734 C   0  0  0  0  0  0  0  0  0  0  0  0
    0.4628   -1.7169   -0.7587 O   0  0  0  0  0  0  0  0  0  0  0  0
    1.8357   -0.1924    0.2276 N   0  0  0  0  0  0  0  0  0  0  0  0
    2.7099   -1.1942    0.8461 C   0  0  1  0  0  0  0  0  0  0  0  0
    4.0168   -1.4143    0.0547 C   0  0  0  0  0  0  0  0  0  0  0  0
    3.7524   -2.1316   -1.2719 C   0  0  0  0  0  0  0  0  0  0  0  0
    4.7902   -0.1161   -0.2031 C   0  0  0  0  0  0  0  0  0  0  0  0
    3.0033   -0.7284    2.2732 C   0  0  0  0  0  0  0  0  0  0  0  0
    2.8439    0.4071    2.7000 O   0  0  0  0  0  0  0  0  0  0  0  0
    3.4941   -1.6987    3.0676 O   0  0  0  0  0  0  0  0  0  0  0  0
    0.1135    4.5322    0.7013 H   0  0  0  0  0  0  0  0  0  0  0  0
    1.3487    3.5159    1.4671 H   0  0  0  0  0  0  0  0  0  0  0  0
    1.8206    4.7169    0.2583 H   0  0  0  0  0  0  0  0  0  0  0  0
    1.8479    2.4361   -0.7065 H   0  0  0  0  0  0  0  0  0  0  0  0
   -0.4270    4.1562   -1.8294 H   0  0  0  0  0  0  0  0  0  0  0  0
    0.4778    2.9247   -2.7246 H   0  0  0  0  0  0  0  0  0  0  0  0
    1.2993    4.3776   -2.1548 H   0  0  0  0  0  0  0  0  0  0  0  0
   -1.1759    2.4020   -0.2599 H   0  0  0  0  0  0  0  0  0  0  0  0
   -0.0817    1.6603    0.8917 H   0  0  0  0  0  0  0  0  0  0  0  0
    0.2135    0.8368   -2.0125 H   0  0  0  0  0  0  0  0  0  0  0  0
   -1.6292   -0.5403   -2.0330 H   0  0  0  0  0  0  0  0  0  0  0  0
   -4.5847   -2.9803    1.7788 H   0  0  0  0  0  0  0  0  0  0  0  0
   -3.1862   -1.9194    1.9550 H   0  0  0  0  0  0  0  0  0  0  0  0
   -3.1440   -3.2060    0.7601 H   0  0  0  0  0  0  0  0  0  0  0  0
   -6.1371   -2.7893   -0.2036 H   0  0  0  0  0  0  0  0  0  0  0  0
   -4.7460   -3.1350   -1.2551 H   0  0  0  0  0  0  0  0  0  0  0  0
   -5.7215   -1.7055   -1.5495 H   0  0  0  0  0  0  0  0  0  0  0  0
   -6.0836   -0.7785    1.3257 H   0  0  0  0  0  0  0  0  0  0  0  0
   -4.6206    0.1886    1.5188 H   0  0  0  0  0  0  0  0  0  0  0  0
   -5.5469    0.3183    0.0323 H   0  0  0  0  0  0  0  0  0  0  0  0
    1.8928    0.7331    0.6383 H   0  0  0  0  0  0  0  0  0  0  0  0
    2.1545   -2.1362    0.9328 H   0  0  0  0  0  0  0  0  0  0  0  0
    4.6690   -2.0678    0.6495 H   0  0  0  0  0  0  0  0  0  0  0  0
    3.1640   -1.5124   -1.9569 H   0  0  0  0  0  0  0  0  0  0  0  0
    3.2120   -3.0696   -1.1075 H   0  0  0  0  0  0  0  0  0  0  0  0
    4.6959   -2.3757   -1.7721 H   0  0  0  0  0  0  0  0  0  0  0  0
    4.2226    0.5758   -0.8342 H   0  0  0  0  0  0  0  0  0  0  0  0
    5.7362   -0.3290   -0.7132 H   0  0  0  0  0  0  0  0  0  0  0  0
    5.0316    0.3957    0.7338 H   0  0  0  0  0  0  0  0  0  0  0  0
    3.6145   -1.2644    3.9383 H   0  0  0  0  0  0  0  0  0  0  0  0
  1  2  1  0
  2  3  1  0
  2  4  1  0
  4  5  1  0
  5  6  1  0
  6  7  1  0
  7  8  2  0
  7  9  1  0
  9 10  1  0
 10 11  1  0
 10 12  1  0
 10 13  1  0
  5 14  1  0
 14 15  2  0
 14 16  1  0
 16 17  1  0
 17 18  1  0
 18 19  1  0
 18 20  1  0
 17 21  1  0
 21 22  2  0
 21 23  1  0
  1 24  1  0
  1 25  1  0
  1 26  1  0
  2 27  1  0
  3 28  1  0
  3 29  1  0
  3 30  1  0
  4 31  1  0
  4 32  1  0
  5 33  1  6
  6 34  1  0
 11 35  1  0
 11 36  1  0
 11 37  1  0
 12 38  1  0
 12 39  1  0
 12 40  1  0
 13 41  1  0
 13 42  1  0
 13 43  1  0
 16 44  1  0
 17 45  1  1
 18 46  1  0
 19 47  1  0
 19 48  1  0
 19 49  1  0
 20 50  1  0
 20 51  1  0
 20 52  1  0
 23 53  1  0
M  END
>  <Unnamed: 0>  (15) 
379

>  <ID>  (15) 
TRAIN_0379

>  <Canonical_Smiles>  (15) 
CC(C)C[C@H](NC(=O)OC(C)(C)C)C(=O)N[C@@H](C(C)C)C(=O)O

>  <Inhibition>  (15) 
15.7

>  <TDC_conf_true_inhibitor>  (15) 
0

>  <TDC_conf_non_inhibitor>  (15) 
1

>  <split>  (15) 
1

$$$$
15
     RDKit          3D

 45 44  0  0  0  0  0  0  0  0999 V2000
   -2.6124   -3.3221   -1.7514 C   0  0  0  0  0  0  0  0  0  0  0  0
   -2.7956   -2.0912   -1.0530 O   0  0  0  0  0  0  0  0  0  0  0  0
   -3.3697   -1.1138   -1.8003 C   0  0  0  0  0  0  0  0  0  0  0  0
   -3.7066   -1.2002   -2.9722 O   0  0  0  0  0  0  0  0  0  0  0  0
   -3.5493    0.1059   -0.9931 C   0  0  0  0  0  0  0  0  0  0  0  0
   -2.5027    0.8245   -0.5155 C   0  0  0  0  0  0  0  0  0  0  0  0
   -1.1373    0.4563   -0.9083 C   0  0  0  0  0  0  0  0  0  0  0  0
   -0.1061    0.3459   -0.0556 C   0  0  0  0  0  0  0  0  0  0  0  0
    1.2252   -0.0320   -0.4748 C   0  0  0  0  0  0  0  0  0  0  0  0
    2.2511   -0.1526    0.3812 C   0  0  0  0  0  0  0  0  0  0  0  0
    3.5838   -0.5288   -0.0383 C   0  0  0  0  0  0  0  0  0  0  0  0
    4.6113   -0.6534    0.8144 C   0  0  0  0  0  0  0  0  0  0  0  0
    5.9312   -0.9973    0.5508 N   0  0  0  0  0  0  0  0  0  0  0  0
    6.8579   -1.2813    1.6479 C   0  0  0  0  0  0  0  0  0  0  0  0
    6.3662   -1.4843   -0.7578 C   0  0  0  0  0  0  0  0  0  0  0  0
   -2.6552    1.9570    0.3141 N   0  0  0  0  0  0  0  0  0  0  0  0
   -1.7945    3.1385    0.1617 C   0  0  0  0  0  0  0  0  0  0  0  0
   -3.1441    1.7790    1.6916 C   0  0  0  0  0  0  0  0  0  0  0  0
   -4.9498    0.5429   -0.7742 C   0  0  0  0  0  0  0  0  0  0  0  0
   -5.7746   -0.2400   -0.3007 O   0  0  0  0  0  0  0  0  0  0  0  0
   -5.3427    1.9427   -1.1706 C   0  0  0  0  0  0  0  0  0  0  0  0
   -1.9581   -3.1787   -2.6166 H   0  0  0  0  0  0  0  0  0  0  0  0
   -3.5782   -3.7345   -2.0593 H   0  0  0  0  0  0  0  0  0  0  0  0
   -2.1342   -4.0309   -1.0702 H   0  0  0  0  0  0  0  0  0  0  0  0
   -0.9875    0.2331   -1.9640 H   0  0  0  0  0  0  0  0  0  0  0  0
   -0.2610    0.5364    1.0041 H   0  0  0  0  0  0  0  0  0  0  0  0
    1.3784   -0.2211   -1.5357 H   0  0  0  0  0  0  0  0  0  0  0  0
    2.1017    0.0328    1.4423 H   0  0  0  0  0  0  0  0  0  0  0  0
    3.7350   -0.7145   -1.0973 H   0  0  0  0  0  0  0  0  0  0  0  0
    4.4441   -0.4592    1.8737 H   0  0  0  0  0  0  0  0  0  0  0  0
    6.6297   -0.6740    2.5314 H   0  0  0  0  0  0  0  0  0  0  0  0
    7.8885   -1.0520    1.3578 H   0  0  0  0  0  0  0  0  0  0  0  0
    6.7998   -2.3387    1.9275 H   0  0  0  0  0  0  0  0  0  0  0  0
    6.0572   -0.7965   -1.5521 H   0  0  0  0  0  0  0  0  0  0  0  0
    5.9390   -2.4720   -0.9580 H   0  0  0  0  0  0  0  0  0  0  0  0
    7.4573   -1.5670   -0.8149 H   0  0  0  0  0  0  0  0  0  0  0  0
   -1.5612    3.3216   -0.8927 H   0  0  0  0  0  0  0  0  0  0  0  0
   -2.3110    4.0295    0.5361 H   0  0  0  0  0  0  0  0  0  0  0  0
   -0.8604    3.0256    0.7216 H   0  0  0  0  0  0  0  0  0  0  0  0
   -3.8816    0.9739    1.7642 H   0  0  0  0  0  0  0  0  0  0  0  0
   -3.6237    2.6971    2.0458 H   0  0  0  0  0  0  0  0  0  0  0  0
   -2.3112    1.5395    2.3605 H   0  0  0  0  0  0  0  0  0  0  0  0
   -4.5929    2.3973   -1.8232 H   0  0  0  0  0  0  0  0  0  0  0  0
   -6.2829    1.9001   -1.7283 H   0  0  0  0  0  0  0  0  0  0  0  0
   -5.4727    2.5567   -0.2763 H   0  0  0  0  0  0  0  0  0  0  0  0
  1  2  1  0
  2  3  1  0
  3  4  2  0
  3  5  1  0
  5  6  2  0
  6  7  1  0
  7  8  2  0
  8  9  1  0
  9 10  2  0
 10 11  1  0
 11 12  2  0
 12 13  1  0
 13 14  1  0
 13 15  1  0
  6 16  1  0
 16 17  1  0
 16 18  1  0
  5 19  1  0
 19 20  2  0
 19 21  1  0
  1 22  1  0
  1 23  1  0
  1 24  1  0
  7 25  1  0
  8 26  1  0
  9 27  1  0
 10 28  1  0
 11 29  1  0
 12 30  1  0
 14 31  1  0
 14 32  1  0
 14 33  1  0
 15 34  1  0
 15 35  1  0
 15 36  1  0
 17 37  1  0
 17 38  1  0
 17 39  1  0
 18 40  1  0
 18 41  1  0
 18 42  1  0
 21 43  1  0
 21 44  1  0
 21 45  1  0
M  END
>  <Unnamed: 0>  (16) 
1130

>  <ID>  (16) 
TRAIN_1130

>  <Canonical_Smiles>  (16) 
COC(=O)\C(=C(/C=C/C=C/C=C/N(C)C)\N(C)C)\C(=O)C

>  <Inhibition>  (16) 
33.0

>  <TDC_conf_true_inhibitor>  (16) 
0

>  <TDC_conf_non_inhibitor>  (16) 
1

>  <split>  (16) 
1

$$$$
16
     RDKit          3D

 31 33  0  0  0  0  0  0  0  0999 V2000
    0.8717   -2.3384   -0.1457 O   0  0  0  0  0  0  0  0  0  0  0  0
    0.9322   -1.0460    0.5134 S   0  0  0  0  0  6  0  0  0  0  0  0
    0.6899   -0.9270    1.9381 O   0  0  0  0  0  0  0  0  0  0  0  0
   -0.0569    0.0878   -0.3506 C   0  0  0  0  0  0  0  0  0  0  0  0
   -1.3892   -0.0876   -0.4644 C   0  0  0  0  0  0  0  0  0  0  0  0
   -2.2056    0.9542   -1.2071 C   0  0  0  0  0  0  0  0  0  0  0  0
   -3.4580    1.3365   -0.4170 C   0  0  0  0  0  0  0  0  0  0  0  0
   -4.3909    0.1389   -0.2498 C   0  0  0  0  0  0  0  0  0  0  0  0
   -3.6775   -1.1048    0.1689 C   0  0  0  0  0  0  0  0  0  0  0  0
   -2.8962   -0.9986    1.3599 O   0  0  0  0  0  0  0  0  0  0  0  0
   -2.1693   -1.1946    0.1319 C   0  0  0  0  0  0  0  0  0  0  0  0
    2.5698   -0.4006    0.2191 C   0  0  0  0  0  0  0  0  0  0  0  0
    3.2989   -0.8451   -0.8882 C   0  0  0  0  0  0  0  0  0  0  0  0
    4.5806   -0.3418   -1.1100 C   0  0  0  0  0  0  0  0  0  0  0  0
    5.1287    0.5898   -0.2260 C   0  0  0  0  0  0  0  0  0  0  0  0
    4.4019    1.0177    0.8867 C   0  0  0  0  0  0  0  0  0  0  0  0
    3.1195    0.5200    1.1168 C   0  0  0  0  0  0  0  0  0  0  0  0
    0.4434    0.9391   -0.7912 H   0  0  0  0  0  0  0  0  0  0  0  0
   -2.4896    0.5540   -2.1884 H   0  0  0  0  0  0  0  0  0  0  0  0
   -1.6160    1.8608   -1.3898 H   0  0  0  0  0  0  0  0  0  0  0  0
   -3.1688    1.7223    0.5690 H   0  0  0  0  0  0  0  0  0  0  0  0
   -3.9919    2.1442   -0.9307 H   0  0  0  0  0  0  0  0  0  0  0  0
   -4.8881   -0.0584   -1.2074 H   0  0  0  0  0  0  0  0  0  0  0  0
   -5.1791    0.3784    0.4726 H   0  0  0  0  0  0  0  0  0  0  0  0
   -4.2678   -2.0020    0.0406 H   0  0  0  0  0  0  0  0  0  0  0  0
   -1.7684   -2.1887   -0.0488 H   0  0  0  0  0  0  0  0  0  0  0  0
    2.8836   -1.5818   -1.5724 H   0  0  0  0  0  0  0  0  0  0  0  0
    5.1579   -0.6818   -1.9666 H   0  0  0  0  0  0  0  0  0  0  0  0
    6.1311    0.9753   -0.3986 H   0  0  0  0  0  0  0  0  0  0  0  0
    4.8402    1.7324    1.5795 H   0  0  0  0  0  0  0  0  0  0  0  0
    2.5640    0.8459    1.9938 H   0  0  0  0  0  0  0  0  0  0  0  0
  1  2  2  0
  2  3  2  0
  2  4  1  0
  4  5  2  0
  5  6  1  0
  6  7  1  0
  7  8  1  0
  8  9  1  0
  9 10  1  0
 10 11  1  0
  2 12  1  0
 12 13  2  0
 13 14  1  0
 14 15  2  0
 15 16  1  0
 16 17  2  0
 11  5  1  0
 11  9  1  0
 17 12  1  0
  4 18  1  0
  6 19  1  0
  6 20  1  0
  7 21  1  0
  7 22  1  0
  8 23  1  0
  8 24  1  0
  9 25  1  0
 11 26  1  0
 13 27  1  0
 14 28  1  0
 15 29  1  0
 16 30  1  0
 17 31  1  0
M  END
>  <Unnamed: 0>  (17) 
45

>  <ID>  (17) 
TRAIN_0045

>  <Canonical_Smiles>  (17) 
O=S(=O)(\C=C/1\CCCC2OC12)c3ccccc3

>  <Inhibition>  (17) 
12.5

>  <TDC_conf_true_inhibitor>  (17) 
0

>  <TDC_conf_non_inhibitor>  (17) 
1

>  <split>  (17) 
1

$$$$
17
     RDKit          3D

 46 48  0  0  0  0  0  0  0  0999 V2000
    3.5465   -2.1063   -0.8872 C   0  0  0  0  0  0  0  0  0  0  0  0
    3.3501   -0.8149   -0.1141 C   0  0  0  0  0  0  0  0  0  0  0  0
    2.5063   -1.1006    1.0081 O   0  0  0  0  0  0  0  0  0  0  0  0
    2.3318    0.0234    1.7720 C   0  0  0  0  0  0  0  0  0  0  0  0
    3.0419    0.1212    2.9672 C   0  0  0  0  0  0  0  0  0  0  0  0
    2.8700    1.2392    3.7856 C   0  0  0  0  0  0  0  0  0  0  0  0
    1.9815    2.2507    3.4136 C   0  0  0  0  0  0  0  0  0  0  0  0
    1.2512    2.1405    2.2293 C   0  0  0  0  0  0  0  0  0  0  0  0
    1.4086    1.0123    1.4236 C   0  0  0  0  0  0  0  0  0  0  0  0
    0.6977    0.9065    0.2592 O   0  0  0  0  0  0  0  0  0  0  0  0
   -0.6754    0.5227    0.4962 C   0  0  2  0  0  0  0  0  0  0  0  0
   -0.8566   -0.9581    0.0637 C   0  0  2  0  0  0  0  0  0  0  0  0
   -0.6315   -1.1790   -1.4506 C   0  0  0  0  0  0  0  0  0  0  0  0
   -0.7704   -2.6038   -1.8312 N   0  0  0  0  0  0  0  0  0  0  0  0
   -2.0892   -3.0755   -1.3708 C   0  0  0  0  0  0  0  0  0  0  0  0
   -2.3018   -2.8358    0.1312 C   0  0  0  0  0  0  0  0  0  0  0  0
   -2.1524   -1.4516    0.4715 O   0  0  0  0  0  0  0  0  0  0  0  0
   -1.6062    1.4973   -0.2230 C   0  0  0  0  0  0  0  0  0  0  0  0
   -2.9593    1.5655    0.1480 C   0  0  0  0  0  0  0  0  0  0  0  0
   -3.8354    2.4433   -0.4934 C   0  0  0  0  0  0  0  0  0  0  0  0
   -3.3723    3.2681   -1.5150 C   0  0  0  0  0  0  0  0  0  0  0  0
   -2.0342    3.2137   -1.8973 C   0  0  0  0  0  0  0  0  0  0  0  0
   -1.1571    2.3353   -1.2569 C   0  0  0  0  0  0  0  0  0  0  0  0
    3.9995   -2.8726   -0.2491 H   0  0  0  0  0  0  0  0  0  0  0  0
    4.1885   -1.9460   -1.7579 H   0  0  0  0  0  0  0  0  0  0  0  0
    2.5834   -2.5021   -1.2255 H   0  0  0  0  0  0  0  0  0  0  0  0
    2.8902   -0.0692   -0.7722 H   0  0  0  0  0  0  0  0  0  0  0  0
    4.3237   -0.4434    0.2285 H   0  0  0  0  0  0  0  0  0  0  0  0
    3.7297   -0.6673    3.2579 H   0  0  0  0  0  0  0  0  0  0  0  0
    3.4276    1.3219    4.7150 H   0  0  0  0  0  0  0  0  0  0  0  0
    1.8542    3.1235    4.0497 H   0  0  0  0  0  0  0  0  0  0  0  0
    0.5592    2.9274    1.9409 H   0  0  0  0  0  0  0  0  0  0  0  0
   -0.9248    0.5939    1.5660 H   0  0  0  0  0  0  0  0  0  0  0  0
   -0.1070   -1.5497    0.6061 H   0  0  0  0  0  0  0  0  0  0  0  0
    0.3674   -0.8398   -1.7440 H   0  0  0  0  0  0  0  0  0  0  0  0
   -1.3570   -0.6065   -2.0397 H   0  0  0  0  0  0  0  0  0  0  0  0
   -0.0481   -3.1335   -1.3416 H   0  0  0  0  0  0  0  0  0  0  0  0
   -2.1837   -4.1437   -1.5922 H   0  0  0  0  0  0  0  0  0  0  0  0
   -2.8671   -2.5547   -1.9423 H   0  0  0  0  0  0  0  0  0  0  0  0
   -1.5995   -3.4289    0.7291 H   0  0  0  0  0  0  0  0  0  0  0  0
   -3.3151   -3.1374    0.4145 H   0  0  0  0  0  0  0  0  0  0  0  0
   -3.3418    0.9223    0.9387 H   0  0  0  0  0  0  0  0  0  0  0  0
   -4.8802    2.4780   -0.1968 H   0  0  0  0  0  0  0  0  0  0  0  0
   -4.0543    3.9497   -2.0160 H   0  0  0  0  0  0  0  0  0  0  0  0
   -1.6711    3.8534   -2.6977 H   0  0  0  0  0  0  0  0  0  0  0  0
   -0.1176    2.3105   -1.5778 H   0  0  0  0  0  0  0  0  0  0  0  0
  1  2  1  0
  2  3  1  0
  3  4  1  0
  4  5  2  0
  5  6  1  0
  6  7  2  0
  7  8  1  0
  8  9  2  0
  9 10  1  0
 10 11  1  0
 11 12  1  0
 12 13  1  0
 13 14  1  0
 14 15  1  0
 15 16  1  0
 16 17  1  0
 11 18  1  0
 18 19  2  0
 19 20  1  0
 20 21  2  0
 21 22  1  0
 22 23  2  0
  9  4  1  0
 17 12  1  0
 23 18  1  0
  1 24  1  0
  1 25  1  0
  1 26  1  0
  2 27  1  0
  2 28  1  0
  5 29  1  0
  6 30  1  0
  7 31  1  0
  8 32  1  0
 11 33  1  1
 12 34  1  1
 13 35  1  0
 13 36  1  0
 14 37  1  0
 15 38  1  0
 15 39  1  0
 16 40  1  0
 16 41  1  0
 19 42  1  0
 20 43  1  0
 21 44  1  0
 22 45  1  0
 23 46  1  0
M  END
>  <Unnamed: 0>  (18) 
46

>  <ID>  (18) 
TRAIN_0046

>  <Canonical_Smiles>  (18) 
CCOc1ccccc1O[C@H]([C@@H]2CNCCO2)c3ccccc3

>  <Inhibition>  (18) 
31.0

>  <TDC_conf_true_inhibitor>  (18) 
0

>  <TDC_conf_non_inhibitor>  (18) 
1

>  <split>  (18) 
1

$$$$
18
     RDKit          3D

 37 40  0  0  0  0  0  0  0  0999 V2000
   -2.6628   -1.1377   -2.7505 Cl  0  0  0  0  0  0  0  0  0  0  0  0
   -3.0879    0.2283   -1.7898 C   0  0  0  0  0  0  0  0  0  0  0  0
   -3.3905    1.3112   -2.5497 N   0  0  0  0  0  0  0  0  0  0  0  0
   -3.8165    2.4147   -1.8940 C   0  0  0  0  0  0  0  0  0  0  0  0
   -3.9605    2.4803   -0.5180 C   0  0  0  0  0  0  0  0  0  0  0  0
   -4.5701    4.0572    0.3143 Br  0  0  0  0  0  0  0  0  0  0  0  0
   -3.6421    1.3571    0.2386 C   0  0  0  0  0  0  0  0  0  0  0  0
   -3.1777    0.1966   -0.3977 C   0  0  0  0  0  0  0  0  0  0  0  0
   -2.8372   -0.9614    0.4156 C   0  0  0  0  0  0  0  0  0  0  0  0
   -3.6159   -1.5391    1.3150 N   0  0  0  0  0  0  0  0  0  0  0  0
   -2.9198   -2.5800    1.8881 N   0  0  0  0  0  0  0  0  0  0  0  0
   -1.7192   -2.5969    1.3543 C   0  0  0  0  0  0  0  0  0  0  0  0
   -0.5929   -3.4127    1.5621 C   0  0  0  0  0  0  0  0  0  0  0  0
    0.5299   -3.1483    0.8834 C   0  0  0  0  0  0  0  0  0  0  0  0
    0.5506   -1.9890   -0.0718 C   0  0  0  0  0  0  0  0  0  0  0  0
    1.7231   -1.7390   -0.7461 N   0  0  0  0  0  0  0  0  0  0  0  0
    1.9790   -0.5105   -1.4745 C   0  0  0  0  0  0  0  0  0  0  0  0
    2.6934    0.4732   -0.5807 C   0  0  0  0  0  0  0  0  0  0  0  0
    4.0946    0.5357   -0.5588 C   0  0  0  0  0  0  0  0  0  0  0  0
    4.7494    1.4320    0.2879 C   0  0  0  0  0  0  0  0  0  0  0  0
    4.0123    2.2683    1.1245 C   0  0  0  0  0  0  0  0  0  0  0  0
    2.6200    2.2092    1.1177 C   0  0  0  0  0  0  0  0  0  0  0  0
    1.9635    1.3148    0.2716 C   0  0  0  0  0  0  0  0  0  0  0  0
   -0.4927   -1.2317   -0.2823 N   0  0  0  0  0  0  0  0  0  0  0  0
   -1.6031   -1.5816    0.4312 N   0  0  0  0  0  0  0  0  0  0  0  0
   -4.0496    3.2632   -2.5317 H   0  0  0  0  0  0  0  0  0  0  0  0
   -3.7501    1.3756    1.3215 H   0  0  0  0  0  0  0  0  0  0  0  0
   -0.6584   -4.2354    2.2643 H   0  0  0  0  0  0  0  0  0  0  0  0
    1.4256   -3.7439    0.9979 H   0  0  0  0  0  0  0  0  0  0  0  0
    2.5653   -2.1686   -0.3823 H   0  0  0  0  0  0  0  0  0  0  0  0
    1.0653   -0.0654   -1.8861 H   0  0  0  0  0  0  0  0  0  0  0  0
    2.6101   -0.7421   -2.3409 H   0  0  0  0  0  0  0  0  0  0  0  0
    4.6857   -0.1101   -1.2043 H   0  0  0  0  0  0  0  0  0  0  0  0
    5.8354    1.4791    0.2952 H   0  0  0  0  0  0  0  0  0  0  0  0
    4.5229    2.9661    1.7832 H   0  0  0  0  0  0  0  0  0  0  0  0
    2.0448    2.8587    1.7725 H   0  0  0  0  0  0  0  0  0  0  0  0
    0.8759    1.2722    0.2795 H   0  0  0  0  0  0  0  0  0  0  0  0
  1  2  1  0
  2  3  2  0
  3  4  1  0
  4  5  2  0
  5  6  1  0
  5  7  1  0
  7  8  2  0
  8  9  1  0
  9 10  2  0
 10 11  1  0
 11 12  2  0
 12 13  1  0
 13 14  2  0
 14 15  1  0
 15 16  1  0
 16 17  1  0
 17 18  1  0
 18 19  2  0
 19 20  1  0
 20 21  2  0
 21 22  1  0
 22 23  2  0
 15 24  2  0
 24 25  1  0
  8  2  1  0
 25  9  1  0
 25 12  1  0
 23 18  1  0
  4 26  1  0
  7 27  1  0
 13 28  1  0
 14 29  1  0
 16 30  1  0
 17 31  1  0
 17 32  1  0
 19 33  1  0
 20 34  1  0
 21 35  1  0
 22 36  1  0
 23 37  1  0
M  END
>  <Unnamed: 0>  (19) 
52

>  <ID>  (19) 
TRAIN_0052

>  <Canonical_Smiles>  (19) 
Clc1ncc(Br)cc1c2nnc3ccc(NCc4ccccc4)nn23

>  <Inhibition>  (19) 
32.6

>  <TDC_conf_true_inhibitor>  (19) 
1

>  <TDC_conf_non_inhibitor>  (19) 
0

>  <split>  (19) 
1

$$$$
19
     RDKit          3D

 49 51  0  0  0  0  0  0  0  0999 V2000
    4.3365   -3.3988    2.1948 C   0  0  0  0  0  0  0  0  0  0  0  0
    3.2348   -2.7246    1.6008 O   0  0  0  0  0  0  0  0  0  0  0  0
    3.4590   -1.4513    1.1505 C   0  0  0  0  0  0  0  0  0  0  0  0
    4.6449   -0.7351    1.2773 C   0  0  0  0  0  0  0  0  0  0  0  0
    4.7352    0.5609    0.7632 C   0  0  0  0  0  0  0  0  0  0  0  0
    3.6396    1.1616    0.1233 C   0  0  0  0  0  0  0  0  0  0  0  0
    3.7804    2.5626   -0.4105 C   0  0  0  0  0  0  0  0  0  0  0  0
    2.4300    0.4470   -0.0058 C   0  0  0  0  0  0  0  0  0  0  0  0
    1.3264    1.0701   -0.6429 N   0  0  0  0  0  0  0  0  0  0  0  0
   -0.0176    0.7031   -0.5970 C   0  0  0  0  0  0  0  0  0  0  0  0
   -0.8552    0.8848   -1.6530 C   0  0  0  0  0  0  0  0  0  0  0  0
   -0.3548    1.5096   -2.9247 C   0  0  0  0  0  0  0  0  0  0  0  0
    0.8566    1.6187   -3.1466 O   0  0  0  0  0  0  0  0  0  0  0  0
   -1.3459    2.0528   -3.9227 C   0  0  0  0  0  0  0  0  0  0  0  0
   -2.2784    0.4471   -1.5169 C   0  0  0  0  0  0  0  0  0  0  0  0
   -2.9803    0.3076   -2.5141 O   0  0  0  0  0  0  0  0  0  0  0  0
   -2.8044    0.1541   -0.1588 C   0  0  0  0  0  0  0  0  0  0  0  0
   -4.1692   -0.0273    0.1018 C   0  0  0  0  0  0  0  0  0  0  0  0
   -5.1240    0.1682   -0.8598 O   0  0  0  0  0  0  0  0  0  0  0  0
   -5.5455   -1.0803   -1.4096 C   0  0  0  0  0  0  0  0  0  0  0  0
   -4.6042   -0.3149    1.3956 C   0  0  0  0  0  0  0  0  0  0  0  0
   -3.6771   -0.4669    2.4243 C   0  0  0  0  0  0  0  0  0  0  0  0
   -2.3053   -0.3045    2.1787 C   0  0  0  0  0  0  0  0  0  0  0  0
   -1.3337   -0.4838    3.3144 C   0  0  0  0  0  0  0  0  0  0  0  0
   -1.8699    0.0464    0.8830 C   0  0  0  0  0  0  0  0  0  0  0  0
   -0.5079    0.2043    0.5979 N   0  0  0  0  0  0  0  0  0  0  0  0
    2.3658   -0.8574    0.5111 C   0  0  0  0  0  0  0  0  0  0  0  0
    4.0012   -4.4045    2.4673 H   0  0  0  0  0  0  0  0  0  0  0  0
    5.1665   -3.5048    1.4869 H   0  0  0  0  0  0  0  0  0  0  0  0
    4.6598   -2.8937    3.1117 H   0  0  0  0  0  0  0  0  0  0  0  0
    5.5185   -1.1528    1.7650 H   0  0  0  0  0  0  0  0  0  0  0  0
    5.6722    1.1043    0.8677 H   0  0  0  0  0  0  0  0  0  0  0  0
    4.7585    2.9903   -0.1651 H   0  0  0  0  0  0  0  0  0  0  0  0
    3.6828    2.5644   -1.5013 H   0  0  0  0  0  0  0  0  0  0  0  0
    3.0191    3.2168    0.0272 H   0  0  0  0  0  0  0  0  0  0  0  0
    1.6081    1.4215   -1.5686 H   0  0  0  0  0  0  0  0  0  0  0  0
   -1.7395    1.2409   -4.5394 H   0  0  0  0  0  0  0  0  0  0  0  0
   -0.8378    2.7707   -4.5759 H   0  0  0  0  0  0  0  0  0  0  0  0
   -2.1515    2.5915   -3.4165 H   0  0  0  0  0  0  0  0  0  0  0  0
   -4.6977   -1.7144   -1.6897 H   0  0  0  0  0  0  0  0  0  0  0  0
   -6.1273   -0.8706   -2.3121 H   0  0  0  0  0  0  0  0  0  0  0  0
   -6.1936   -1.6111   -0.7029 H   0  0  0  0  0  0  0  0  0  0  0  0
   -5.6666   -0.4174    1.6034 H   0  0  0  0  0  0  0  0  0  0  0  0
   -4.0343   -0.7071    3.4238 H   0  0  0  0  0  0  0  0  0  0  0  0
   -0.8645    0.4737    3.5635 H   0  0  0  0  0  0  0  0  0  0  0  0
   -0.5610   -1.2117    3.0451 H   0  0  0  0  0  0  0  0  0  0  0  0
   -1.8324   -0.8582    4.2154 H   0  0  0  0  0  0  0  0  0  0  0  0
    0.1199    0.3704    1.3772 H   0  0  0  0  0  0  0  0  0  0  0  0
    1.4637   -1.4522    0.3933 H   0  0  0  0  0  0  0  0  0  0  0  0
  1  2  1  0
  2  3  1  0
  3  4  2  0
  4  5  1  0
  5  6  2  0
  6  7  1  0
  6  8  1  0
  8  9  1  0
  9 10  1  0
 10 11  2  0
 11 12  1  0
 12 13  2  0
 12 14  1  0
 11 15  1  0
 15 16  2  0
 15 17  1  0
 17 18  2  0
 18 19  1  0
 19 20  1  0
 18 21  1  0
 21 22  2  0
 22 23  1  0
 23 24  1  0
 23 25  2  0
 25 26  1  0
  8 27  2  0
 27  3  1  0
 26 10  1  0
 25 17  1  0
  1 28  1  0
  1 29  1  0
  1 30  1  0
  4 31  1  0
  5 32  1  0
  7 33  1  0
  7 34  1  0
  7 35  1  0
  9 36  1  0
 14 37  1  0
 14 38  1  0
 14 39  1  0
 20 40  1  0
 20 41  1  0
 20 42  1  0
 21 43  1  0
 22 44  1  0
 24 45  1  0
 24 46  1  0
 24 47  1  0
 26 48  1  0
 27 49  1  0
M  END
>  <Unnamed: 0>  (20) 
54

>  <ID>  (20) 
TRAIN_0054

>  <Canonical_Smiles>  (20) 
COc1ccc(C)c(NC2=C(C(=O)C)C(=O)c3c(OC)ccc(C)c3N2)c1

>  <Inhibition>  (20) 
54.0

>  <TDC_conf_true_inhibitor>  (20) 
1

>  <TDC_conf_non_inhibitor>  (20) 
0

>  <split>  (20) 
1

$$$$
20
     RDKit          3D

 36 37  0  0  0  0  0  0  0  0999 V2000
    4.7488   -1.1275    1.9696 C   0  0  0  0  0  0  0  0  0  0  0  0
    4.0766   -0.0676    1.2000 C   0  0  0  0  0  0  0  0  0  0  0  0
    4.6384    0.2737    0.0039 O   0  0  0  0  0  0  0  0  0  0  0  0
    3.8196    1.2595   -0.5511 N   0  0  0  0  0  0  0  0  0  0  0  0
    2.8477    1.3967    0.3613 C   0  0  0  0  0  0  0  0  0  0  0  0
    1.6756    2.2909    0.1481 C   0  0  0  0  0  0  0  0  0  0  0  0
    0.4154    1.5948    0.1241 O   0  0  0  0  0  0  0  0  0  0  0  0
    0.2344    0.8455   -1.0731 C   0  0  0  0  0  0  0  0  0  0  0  0
   -1.1314    0.2020   -0.9910 C   0  0  0  0  0  0  0  0  0  0  0  0
   -2.2324    0.7708   -1.6916 C   0  0  0  0  0  0  0  0  0  0  0  0
   -1.9989    2.1754   -2.6935 Cl  0  0  0  0  0  0  0  0  0  0  0  0
   -3.5138    0.1933   -1.6109 C   0  0  0  0  0  0  0  0  0  0  0  0
   -3.7208   -0.9506   -0.8354 C   0  0  0  0  0  0  0  0  0  0  0  0
   -2.6635   -1.5105   -0.1274 C   0  0  0  0  0  0  0  0  0  0  0  0
   -1.3811   -0.9375   -0.1831 C   0  0  0  0  0  0  0  0  0  0  0  0
   -0.1167   -1.7744    0.7877 S   0  0  0  0  0  6  0  0  0  0  0  0
   -0.6652   -3.0673    1.1634 O   0  0  0  0  0  0  0  0  0  0  0  0
    1.1329   -1.7323    0.0577 O   0  0  0  0  0  0  0  0  0  0  0  0
    0.0140   -0.8282    2.2809 C   0  0  0  0  0  0  0  0  0  0  0  0
   -4.6873    0.7779   -2.2970 C   0  0  0  0  0  0  0  0  0  0  0  0
   -5.0115    1.9470   -2.3403 O   0  0  0  0  0  0  0  0  0  0  0  0
   -5.4155   -0.1796   -2.9012 O   0  0  0  0  0  0  0  0  0  0  0  0
    2.9864    0.6097    1.4801 N   0  0  0  0  0  0  0  0  0  0  0  0
    5.8358   -1.0701    1.8520 H   0  0  0  0  0  0  0  0  0  0  0  0
    4.5161   -1.0339    3.0349 H   0  0  0  0  0  0  0  0  0  0  0  0
    4.4140   -2.1126    1.6299 H   0  0  0  0  0  0  0  0  0  0  0  0
    1.7816    2.8905   -0.7636 H   0  0  0  0  0  0  0  0  0  0  0  0
    1.6251    2.9945    0.9860 H   0  0  0  0  0  0  0  0  0  0  0  0
    1.0187    0.1024   -1.2172 H   0  0  0  0  0  0  0  0  0  0  0  0
    0.3354    1.5111   -1.9343 H   0  0  0  0  0  0  0  0  0  0  0  0
   -4.7079   -1.4054   -0.7713 H   0  0  0  0  0  0  0  0  0  0  0  0
   -2.8571   -2.4012    0.4703 H   0  0  0  0  0  0  0  0  0  0  0  0
    0.3247    0.1901    2.0689 H   0  0  0  0  0  0  0  0  0  0  0  0
   -0.9556   -0.8316    2.7836 H   0  0  0  0  0  0  0  0  0  0  0  0
    0.7581   -1.3108    2.9186 H   0  0  0  0  0  0  0  0  0  0  0  0
   -6.1409    0.3153   -3.3389 H   0  0  0  0  0  0  0  0  0  0  0  0
  1  2  1  0
  2  3  1  0
  3  4  1  0
  4  5  2  0
  5  6  1  0
  6  7  1  0
  7  8  1  0
  8  9  1  0
  9 10  2  0
 10 11  1  0
 10 12  1  0
 12 13  2  0
 13 14  1  0
 14 15  2  0
 15 16  1  0
 16 17  2  0
 16 18  2  0
 16 19  1  0
 12 20  1  0
 20 21  2  0
 20 22  1  0
  5 23  1  0
 23  2  2  0
 15  9  1  0
  1 24  1  0
  1 25  1  0
  1 26  1  0
  6 27  1  0
  6 28  1  0
  8 29  1  0
  8 30  1  0
 13 31  1  0
 14 32  1  0
 19 33  1  0
 19 34  1  0
 19 35  1  0
 22 36  1  0
M  END
>  <Unnamed: 0>  (21) 
62

>  <ID>  (21) 
TRAIN_0062

>  <Canonical_Smiles>  (21) 
Cc1onc(COCc2c(Cl)c(ccc2S(=O)(=O)C)C(=O)O)n1

>  <Inhibition>  (21) 
1.18

>  <TDC_conf_true_inhibitor>  (21) 
0

>  <TDC_conf_non_inhibitor>  (21) 
1

>  <split>  (21) 
1

$$$$
21
     RDKit          3D

 52 54  0  0  0  0  0  0  0  0999 V2000
   -7.1664   -0.4368   -0.0252 C   0  0  0  0  0  0  0  0  0  0  0  0
   -5.8754   -0.7460    0.4807 O   0  0  0  0  0  0  0  0  0  0  0  0
   -4.7855   -0.3459   -0.2509 C   0  0  0  0  0  0  0  0  0  0  0  0
   -4.8588    0.3416   -1.4670 C   0  0  0  0  0  0  0  0  0  0  0  0
   -3.6941    0.7171   -2.1518 C   0  0  0  0  0  0  0  0  0  0  0  0
   -3.9536    1.5650   -3.8325 Br  0  0  0  0  0  0  0  0  0  0  0  0
   -2.4459    0.4140   -1.6054 C   0  0  0  0  0  0  0  0  0  0  0  0
   -2.3661   -0.3001   -0.3977 C   0  0  0  0  0  0  0  0  0  0  0  0
   -3.5267   -0.6776    0.2844 C   0  0  0  0  0  0  0  0  0  0  0  0
   -3.5390   -1.3697    1.4695 O   0  0  0  0  0  0  0  0  0  0  0  0
   -2.2882   -1.7411    2.0366 C   0  0  0  0  0  0  0  0  0  0  0  0
   -0.9432    0.9017   -2.4096 S   0  0  0  0  0  6  0  0  0  0  0  0
   -0.5916   -0.1585   -3.3266 O   0  0  0  0  0  0  0  0  0  0  0  0
   -1.0422    2.2859   -2.8143 O   0  0  0  0  0  0  0  0  0  0  0  0
    0.2083    0.8557   -1.1988 N   0  0  0  0  0  0  0  0  0  0  0  0
    0.4130    2.0106   -0.3028 C   0  0  2  0  0  0  0  0  0  0  0  0
    1.5364    2.8958   -0.8762 C   0  0  0  0  0  0  0  0  0  0  0  0
    2.8521    2.7946   -0.0952 C   0  0  0  0  0  0  0  0  0  0  0  0
    3.1615    1.3640    0.3404 C   0  0  0  0  0  0  0  0  0  0  0  0
    2.0433    0.7314    1.0487 N   0  0  0  0  0  0  0  0  0  0  0  0
    0.7888    1.4922    1.0959 C   0  0  0  0  0  0  0  0  0  0  0  0
    1.9978   -0.6358    1.3289 C   0  0  0  0  0  0  0  0  0  0  0  0
    0.9619   -1.2411    1.5940 O   0  0  0  0  0  0  0  0  0  0  0  0
    3.2540   -1.4141    1.2731 C   0  0  0  0  0  0  0  0  0  0  0  0
    4.3259   -1.0995    2.1141 C   0  0  0  0  0  0  0  0  0  0  0  0
    5.4946   -1.8592    2.0551 C   0  0  0  0  0  0  0  0  0  0  0  0
    5.5831   -2.9357    1.1706 C   0  0  0  0  0  0  0  0  0  0  0  0
    4.5018   -3.2637    0.3506 C   0  0  0  0  0  0  0  0  0  0  0  0
    3.3308   -2.5077    0.4054 C   0  0  0  0  0  0  0  0  0  0  0  0
   -7.3126    0.6459   -0.1000 H   0  0  0  0  0  0  0  0  0  0  0  0
   -7.9050   -0.8231    0.6840 H   0  0  0  0  0  0  0  0  0  0  0  0
   -7.3414   -0.9287   -0.9878 H   0  0  0  0  0  0  0  0  0  0  0  0
   -5.8203    0.5872   -1.9073 H   0  0  0  0  0  0  0  0  0  0  0  0
   -1.3920   -0.5732   -0.0052 H   0  0  0  0  0  0  0  0  0  0  0  0
   -1.7045   -0.8557    2.3060 H   0  0  0  0  0  0  0  0  0  0  0  0
   -2.4916   -2.2967    2.9570 H   0  0  0  0  0  0  0  0  0  0  0  0
   -1.7306   -2.4028    1.3662 H   0  0  0  0  0  0  0  0  0  0  0  0
    0.9630    0.1845   -1.3291 H   0  0  0  0  0  0  0  0  0  0  0  0
   -0.5159    2.5868   -0.2243 H   0  0  0  0  0  0  0  0  0  0  0  0
    1.7251    2.6554   -1.9301 H   0  0  0  0  0  0  0  0  0  0  0  0
    1.2117    3.9439   -0.8592 H   0  0  0  0  0  0  0  0  0  0  0  0
    2.7873    3.4349    0.7939 H   0  0  0  0  0  0  0  0  0  0  0  0
    3.6754    3.1909   -0.7002 H   0  0  0  0  0  0  0  0  0  0  0  0
    3.3984    0.7505   -0.5365 H   0  0  0  0  0  0  0  0  0  0  0  0
    4.0367    1.3666    0.9962 H   0  0  0  0  0  0  0  0  0  0  0  0
   -0.0219    0.8821    1.5060 H   0  0  0  0  0  0  0  0  0  0  0  0
    0.9355    2.3283    1.7900 H   0  0  0  0  0  0  0  0  0  0  0  0
    4.2491   -0.2772    2.8203 H   0  0  0  0  0  0  0  0  0  0  0  0
    6.3332   -1.6201    2.7046 H   0  0  0  0  0  0  0  0  0  0  0  0
    6.4929   -3.5304    1.1297 H   0  0  0  0  0  0  0  0  0  0  0  0
    4.5690   -4.1136   -0.3242 H   0  0  0  0  0  0  0  0  0  0  0  0
    2.4819   -2.7724   -0.2200 H   0  0  0  0  0  0  0  0  0  0  0  0
  1  2  1  0
  2  3  1  0
  3  4  2  0
  4  5  1  0
  5  6  1  0
  5  7  2  0
  7  8  1  0
  8  9  2  0
  9 10  1  0
 10 11  1  0
  7 12  1  0
 12 13  2  0
 12 14  2  0
 12 15  1  0
 15 16  1  0
 16 17  1  0
 17 18  1  0
 18 19  1  0
 19 20  1  0
 20 21  1  0
 20 22  1  0
 22 23  2  0
 22 24  1  0
 24 25  2  0
 25 26  1  0
 26 27  2  0
 27 28  1  0
 28 29  2  0
  9  3  1  0
 21 16  1  0
 29 24  1  0
  1 30  1  0
  1 31  1  0
  1 32  1  0
  4 33  1  0
  8 34  1  0
 11 35  1  0
 11 36  1  0
 11 37  1  0
 15 38  1  0
 16 39  1  1
 17 40  1  0
 17 41  1  0
 18 42  1  0
 18 43  1  0
 19 44  1  0
 19 45  1  0
 21 46  1  0
 21 47  1  0
 25 48  1  0
 26 49  1  0
 27 50  1  0
 28 51  1  0
 29 52  1  0
M  END
>  <Unnamed: 0>  (22) 
67

>  <ID>  (22) 
TRAIN_0067

>  <Canonical_Smiles>  (22) 
COc1cc(Br)c(cc1OC)S(=O)(=O)N[C@@H]2CCCN(C2)C(=O)c3ccccc3

>  <Inhibition>  (22) 
75.8

>  <TDC_conf_true_inhibitor>  (22) 
1

>  <TDC_conf_non_inhibitor>  (22) 
0

>  <split>  (22) 
1

$$$$
22
     RDKit          3D

 29 30  0  0  0  0  0  0  0  0999 V2000
   -3.2079    0.8467    1.3642 C   0  0  0  0  0  0  0  0  0  0  0  0
   -2.4893    0.0299    0.2798 C   0  0  0  0  0  0  0  0  0  0  0  0
   -2.9572    0.5203   -1.0947 C   0  0  0  0  0  0  0  0  0  0  0  0
   -2.8023   -1.4547    0.4953 C   0  0  0  0  0  0  0  0  0  0  0  0
   -1.0798    0.3054    0.4845 O   0  0  0  0  0  0  0  0  0  0  0  0
   -0.1475   -0.2681   -0.3186 C   0  0  0  0  0  0  0  0  0  0  0  0
   -0.3278   -1.0326   -1.2506 O   0  0  0  0  0  0  0  0  0  0  0  0
    1.1395    0.1496    0.0748 N   0  0  0  0  0  0  0  0  0  0  0  0
    1.4473    1.0167    1.1218 C   0  0  0  0  0  0  0  0  0  0  0  0
    2.8111    1.1830    1.1954 C   0  0  0  0  0  0  0  0  0  0  0  0
    3.3871    0.3999    0.1666 C   0  0  0  0  0  0  0  0  0  0  0  0
    4.6597    0.1150   -0.3113 C   0  0  0  0  0  0  0  0  0  0  0  0
    5.9977    0.8315    0.4482 Cl  0  0  0  0  0  0  0  0  0  0  0  0
    4.8798   -0.6999   -1.3449 N   0  0  0  0  0  0  0  0  0  0  0  0
    3.7864   -1.2327   -1.9002 C   0  0  0  0  0  0  0  0  0  0  0  0
    4.0652   -2.2774   -3.2249 Cl  0  0  0  0  0  0  0  0  0  0  0  0
    2.5010   -1.0587   -1.5587 N   0  0  0  0  0  0  0  0  0  0  0  0
    2.3446   -0.2268   -0.5101 C   0  0  0  0  0  0  0  0  0  0  0  0
   -4.2947    0.7217    1.3149 H   0  0  0  0  0  0  0  0  0  0  0  0
   -2.9772    1.9139    1.2653 H   0  0  0  0  0  0  0  0  0  0  0  0
   -2.8701    0.5493    2.3639 H   0  0  0  0  0  0  0  0  0  0  0  0
   -2.6478    1.5579   -1.2634 H   0  0  0  0  0  0  0  0  0  0  0  0
   -4.0470    0.4619   -1.1888 H   0  0  0  0  0  0  0  0  0  0  0  0
   -2.5264   -0.0715   -1.9080 H   0  0  0  0  0  0  0  0  0  0  0  0
   -2.3839   -1.8063    1.4451 H   0  0  0  0  0  0  0  0  0  0  0  0
   -2.3687   -2.0818   -0.2895 H   0  0  0  0  0  0  0  0  0  0  0  0
   -3.8823   -1.6374    0.5014 H   0  0  0  0  0  0  0  0  0  0  0  0
    0.6569    1.4425    1.7277 H   0  0  0  0  0  0  0  0  0  0  0  0
    3.3335    1.8030    1.9146 H   0  0  0  0  0  0  0  0  0  0  0  0
  1  2  1  0
  2  3  1  0
  2  4  1  0
  2  5  1  0
  5  6  1  0
  6  7  2  0
  6  8  1  0
  8  9  1  0
  9 10  2  0
 10 11  1  0
 11 12  2  0
 12 13  1  0
 12 14  1  0
 14 15  2  0
 15 16  1  0
 15 17  1  0
 17 18  2  0
 18  8  1  0
 18 11  1  0
  1 19  1  0
  1 20  1  0
  1 21  1  0
  3 22  1  0
  3 23  1  0
  3 24  1  0
  4 25  1  0
  4 26  1  0
  4 27  1  0
  9 28  1  0
 10 29  1  0
M  END
>  <Unnamed: 0>  (23) 
69

>  <ID>  (23) 
TRAIN_0069

>  <Canonical_Smiles>  (23) 
CC(C)(C)OC(=O)n1ccc2c(Cl)nc(Cl)nc12

>  <Inhibition>  (23) 
11.4

>  <TDC_conf_true_inhibitor>  (23) 
0

>  <TDC_conf_non_inhibitor>  (23) 
1

>  <split>  (23) 
1

$$$$
23
     RDKit          3D

 51 54  0  0  0  0  0  0  0  0999 V2000
   -0.7041    4.6228    2.9383 C   0  0  0  0  0  0  0  0  0  0  0  0
   -0.0217    3.8908    1.9219 O   0  0  0  0  0  0  0  0  0  0  0  0
   -0.3494    2.5688    1.8696 C   0  0  0  0  0  0  0  0  0  0  0  0
   -1.1236    2.0257    2.6493 O   0  0  0  0  0  0  0  0  0  0  0  0
    0.3255    1.8486    0.7814 C   0  0  0  0  0  0  0  0  0  0  0  0
   -0.1029    0.6326    0.2333 C   0  0  0  0  0  0  0  0  0  0  0  0
   -1.3519   -0.1452    0.5645 C   0  0  0  0  0  0  0  0  0  0  0  0
   -2.6638    0.3396   -0.5721 S   0  0  0  0  0  6  0  0  0  0  0  0
   -3.2258    1.5995   -0.1164 O   0  0  0  0  0  0  0  0  0  0  0  0
   -2.1914    0.2138   -1.9391 O   0  0  0  0  0  0  0  0  0  0  0  0
   -3.8918   -0.9180   -0.3125 C   0  0  0  0  0  0  0  0  0  0  0  0
   -4.9336   -0.6944    0.5912 C   0  0  0  0  0  0  0  0  0  0  0  0
   -5.8958   -1.6855    0.7848 C   0  0  0  0  0  0  0  0  0  0  0  0
   -5.8196   -2.8830    0.0712 C   0  0  0  0  0  0  0  0  0  0  0  0
   -4.7869   -3.0913   -0.8456 C   0  0  0  0  0  0  0  0  0  0  0  0
   -3.8197   -2.1066   -1.0439 C   0  0  0  0  0  0  0  0  0  0  0  0
    0.7970    0.3028   -0.7751 N   0  0  0  0  0  0  0  0  0  0  0  0
    1.7894    1.2629   -0.8889 C   0  0  0  0  0  0  0  0  0  0  0  0
    2.9073    1.3703   -1.7426 C   0  0  0  0  0  0  0  0  0  0  0  0
    3.7616    2.4658   -1.6051 C   0  0  0  0  0  0  0  0  0  0  0  0
    3.5187    3.4358   -0.6462 C   0  0  0  0  0  0  0  0  0  0  0  0
    2.4078    3.3315    0.1950 C   0  0  0  0  0  0  0  0  0  0  0  0
    1.5192    2.2358    0.0802 C   0  0  0  0  0  0  0  0  0  0  0  0
    0.8894   -1.1933   -1.6344 S   0  0  0  0  0  6  0  0  0  0  0  0
    1.1881   -0.8454   -3.0097 O   0  0  0  0  0  0  0  0  0  0  0  0
   -0.2671   -1.9895   -1.2751 O   0  0  0  0  0  0  0  0  0  0  0  0
    2.3039   -2.0033   -0.9304 C   0  0  0  0  0  0  0  0  0  0  0  0
    3.3208   -2.4635   -1.7718 C   0  0  0  0  0  0  0  0  0  0  0  0
    4.4312   -3.1009   -1.2197 C   0  0  0  0  0  0  0  0  0  0  0  0
    4.5180   -3.2812    0.1615 C   0  0  0  0  0  0  0  0  0  0  0  0
    3.4944   -2.8298    0.9967 C   0  0  0  0  0  0  0  0  0  0  0  0
    2.3795   -2.1915    0.4537 C   0  0  0  0  0  0  0  0  0  0  0  0
   -0.3680    5.6619    2.8896 H   0  0  0  0  0  0  0  0  0  0  0  0
   -0.4584    4.2271    3.9283 H   0  0  0  0  0  0  0  0  0  0  0  0
   -1.7848    4.5993    2.7687 H   0  0  0  0  0  0  0  0  0  0  0  0
   -1.2107   -1.2227    0.5426 H   0  0  0  0  0  0  0  0  0  0  0  0
   -1.7206    0.0718    1.5687 H   0  0  0  0  0  0  0  0  0  0  0  0
   -5.0078    0.2418    1.1403 H   0  0  0  0  0  0  0  0  0  0  0  0
   -6.7126   -1.5215    1.4833 H   0  0  0  0  0  0  0  0  0  0  0  0
   -6.5741   -3.6520    0.2199 H   0  0  0  0  0  0  0  0  0  0  0  0
   -4.7369   -4.0208   -1.4077 H   0  0  0  0  0  0  0  0  0  0  0  0
   -3.0199   -2.2743   -1.7632 H   0  0  0  0  0  0  0  0  0  0  0  0
    3.1184    0.6362   -2.5154 H   0  0  0  0  0  0  0  0  0  0  0  0
    4.6235    2.5594   -2.2628 H   0  0  0  0  0  0  0  0  0  0  0  0
    4.1902    4.2853   -0.5502 H   0  0  0  0  0  0  0  0  0  0  0  0
    2.2404    4.1077    0.9371 H   0  0  0  0  0  0  0  0  0  0  0  0
    3.2583   -2.3330   -2.8505 H   0  0  0  0  0  0  0  0  0  0  0  0
    5.2277   -3.4620   -1.8663 H   0  0  0  0  0  0  0  0  0  0  0  0
    5.3844   -3.7821    0.5878 H   0  0  0  0  0  0  0  0  0  0  0  0
    3.5656   -2.9839    2.0711 H   0  0  0  0  0  0  0  0  0  0  0  0
    1.5823   -1.8628    1.1146 H   0  0  0  0  0  0  0  0  0  0  0  0
  1  2  1  0
  2  3  1  0
  3  4  2  0
  3  5  1  0
  5  6  2  0
  6  7  1  0
  7  8  1  0
  8  9  2  0
  8 10  2  0
  8 11  1  0
 11 12  2  0
 12 13  1  0
 13 14  2  0
 14 15  1  0
 15 16  2  0
  6 17  1  0
 17 18  1  0
 18 19  2  0
 19 20  1  0
 20 21  2  0
 21 22  1  0
 22 23  2  0
 17 24  1  0
 24 25  2  0
 24 26  2  0
 24 27  1  0
 27 28  2  0
 28 29  1  0
 29 30  2  0
 30 31  1  0
 31 32  2  0
 23  5  1  0
 16 11  1  0
 23 18  1  0
 32 27  1  0
  1 33  1  0
  1 34  1  0
  1 35  1  0
  7 36  1  0
  7 37  1  0
 12 38  1  0
 13 39  1  0
 14 40  1  0
 15 41  1  0
 16 42  1  0
 19 43  1  0
 20 44  1  0
 21 45  1  0
 22 46  1  0
 28 47  1  0
 29 48  1  0
 30 49  1  0
 31 50  1  0
 32 51  1  0
M  END
>  <Unnamed: 0>  (24) 
80

>  <ID>  (24) 
TRAIN_0080

>  <Canonical_Smiles>  (24) 
COC(=O)c1c(CS(=O)(=O)c2ccccc2)n(c3ccccc13)S(=O)(=O)c4ccccc4

>  <Inhibition>  (24) 
63.9

>  <TDC_conf_true_inhibitor>  (24) 
1

>  <TDC_conf_non_inhibitor>  (24) 
0

>  <split>  (24) 
1

$$$$
24
     RDKit          3D

 34 34  0  0  0  0  0  0  0  0999 V2000
    0.6828    0.0000    0.0000 Cl  0  0  0  0  0  0  0  0  0  0  0  0
    0.1879    0.2779   -2.0854 C   0  0  0  0  0  0  0  0  0  0  0  0
   -0.0763   -0.7762   -1.1704 N   0  0  0  0  0  0  0  0  0  0  0  0
   -0.8950   -0.4885   -0.0554 C   0  0  0  0  0  0  0  0  0  0  0  0
   -2.1938   -1.3047   -0.1195 C   0  0  0  0  0  0  0  0  0  0  0  0
   -3.2208   -0.6782    0.7800 C   0  0  0  0  0  0  0  0  0  0  0  0
   -3.6284    0.6315    0.3497 N   0  0  0  0  0  0  0  0  0  0  0  0
   -2.6233    1.2698   -0.4756 C   0  0  0  0  0  0  0  0  0  0  0  0
   -1.2719    0.9267    0.1671 C   0  0  0  0  0  0  0  0  0  0  0  0
    1.3822   -1.6039   -0.7785 S   0  0  0  0  0  6  0  0  0  0  0  0
    1.1340   -2.7442    0.1658 O   0  0  0  0  0  0  0  0  0  0  0  0
    2.0547   -2.1461   -1.9891 O   0  0  0  0  0  0  0  0  0  0  0  0
    2.5412   -0.5094    0.0044 C   0  0  0  0  0  0  0  0  0  0  0  0
    3.8108   -0.1572   -0.4137 C   0  0  0  0  0  0  0  0  0  0  0  0
    4.4925    0.6872    0.3486 C   0  0  0  0  0  0  0  0  0  0  0  0
    3.9647    1.1856    1.4936 C   0  0  0  0  0  0  0  0  0  0  0  0
    4.5268    2.2596    2.6914 Cl  0  0  0  0  0  0  0  0  0  0  0  0
    2.3240    0.3638    1.4815 S   0  0  0  0  0  0  0  0  0  0  0  0
   -0.6828    0.0000    0.0000 H   0  0  0  0  0  0  0  0  0  0  0  0
   -0.6844    0.5727   -2.7202 H   0  0  0  0  0  0  0  0  0  0  0  0
    0.6970    1.1656   -1.6373 H   0  0  0  0  0  0  0  0  0  0  0  0
    0.9421   -0.1199   -2.8283 H   0  0  0  0  0  0  0  0  0  0  0  0
   -0.3715   -0.8884    0.8634 H   0  0  0  0  0  0  0  0  0  0  0  0
   -1.9927   -2.3222    0.2239 H   0  0  0  0  0  0  0  0  0  0  0  0
   -2.5745   -1.2848   -1.1545 H   0  0  0  0  0  0  0  0  0  0  0  0
   -4.0895   -1.3440    0.8431 H   0  0  0  0  0  0  0  0  0  0  0  0
   -2.7934   -0.5754    1.8171 H   0  0  0  0  0  0  0  0  0  0  0  0
   -3.9088    1.2361    1.1476 H   0  0  0  0  0  0  0  0  0  0  0  0
   -2.7442    2.3557   -0.5010 H   0  0  0  0  0  0  0  0  0  0  0  0
   -2.7185    0.8660   -1.4836 H   0  0  0  0  0  0  0  0  0  0  0  0
   -1.4614    1.0523    1.2753 H   0  0  0  0  0  0  0  0  0  0  0  0
   -0.5211    1.6760   -0.0865 H   0  0  0  0  0  0  0  0  0  0  0  0
    4.1798   -0.6046   -1.3636 H   0  0  0  0  0  0  0  0  0  0  0  0
    5.5319    1.0210    0.0749 H   0  0  0  0  0  0  0  0  0  0  0  0
  2  3  1  0
  3  4  1  0
  4  5  1  0
  5  6  1  0
  6  7  1  0
  7  8  1  0
  8  9  1  0
  3 10  1  0
 10 11  2  0
 10 12  2  0
 10 13  1  0
 13 14  2  0
 14 15  1  0
 15 16  2  0
 16 17  1  0
 16 18  1  0
  9  4  1  0
 18 13  1  0
  1 19  1  0
  2 20  1  0
  2 21  1  0
  2 22  1  0
  4 23  1  0
  5 24  1  0
  5 25  1  0
  6 26  1  0
  6 27  1  0
  7 28  1  0
  8 29  1  0
  8 30  1  0
  9 31  1  0
  9 32  1  0
 14 33  1  0
 15 34  1  0
M  END
>  <Unnamed: 0>  (25) 
82

>  <ID>  (25) 
TRAIN_0082

>  <Canonical_Smiles>  (25) 
Cl.CN(C1CCNCC1)S(=O)(=O)c2ccc(Cl)s2

>  <Inhibition>  (25) 
36.7

>  <TDC_conf_true_inhibitor>  (25) 
1

>  <TDC_conf_non_inhibitor>  (25) 
0

>  <split>  (25) 
1

$$$$
25
     RDKit          3D

 34 35  0  0  0  0  0  0  0  0999 V2000
   -0.4839    3.5013    0.9571 C   0  0  0  0  0  0  0  0  0  0  0  0
   -0.5221    2.0489    1.3438 C   0  0  0  0  0  0  0  0  0  0  0  0
   -0.3958    1.6654    2.5058 O   0  0  0  0  0  0  0  0  0  0  0  0
   -0.6150    1.0531    0.2525 C   0  0  0  0  0  0  0  0  0  0  0  0
   -1.7994    0.5312   -0.1331 C   0  0  0  0  0  0  0  0  0  0  0  0
   -3.3035    1.0958    0.5921 S   0  0  0  0  0  0  0  0  0  0  0  0
   -4.3074   -0.4090    0.4761 C   0  0  0  0  0  0  0  0  0  0  0  0
   -4.6244   -0.8020   -0.9652 C   0  0  0  0  0  0  0  0  0  0  0  0
   -3.5459   -0.4928   -1.9999 C   0  0  0  0  0  0  0  0  0  0  0  0
   -1.8705   -0.7349   -1.3540 S   0  0  0  0  0  0  0  0  0  0  0  0
    0.6759    0.6293   -0.3437 C   0  0  0  0  0  0  0  0  0  0  0  0
    0.9940    1.0374   -1.4532 O   0  0  0  0  0  0  0  0  0  0  0  0
    1.4046   -0.1713    0.5131 N   0  0  0  0  0  0  0  0  0  0  0  0
    2.6743   -0.7384    0.2793 C   0  0  0  0  0  0  0  0  0  0  0  0
    3.2384   -1.4908    1.3179 C   0  0  0  0  0  0  0  0  0  0  0  0
    4.4906   -2.0911    1.1653 C   0  0  0  0  0  0  0  0  0  0  0  0
    5.1894   -1.9476   -0.0297 C   0  0  0  0  0  0  0  0  0  0  0  0
    4.6352   -1.2056   -1.0691 C   0  0  0  0  0  0  0  0  0  0  0  0
    3.3828   -0.6022   -0.9153 C   0  0  0  0  0  0  0  0  0  0  0  0
    0.5416    3.8667    1.0402 H   0  0  0  0  0  0  0  0  0  0  0  0
   -1.1406    4.0685    1.6203 H   0  0  0  0  0  0  0  0  0  0  0  0
   -0.8304    3.6397   -0.0717 H   0  0  0  0  0  0  0  0  0  0  0  0
   -5.2395   -0.2529    1.0281 H   0  0  0  0  0  0  0  0  0  0  0  0
   -3.7810   -1.2241    0.9875 H   0  0  0  0  0  0  0  0  0  0  0  0
   -4.8477   -1.8766   -0.9829 H   0  0  0  0  0  0  0  0  0  0  0  0
   -5.5530   -0.3096   -1.2815 H   0  0  0  0  0  0  0  0  0  0  0  0
   -3.6809   -1.1402   -2.8726 H   0  0  0  0  0  0  0  0  0  0  0  0
   -3.6427    0.5375   -2.3619 H   0  0  0  0  0  0  0  0  0  0  0  0
    1.0026   -0.3472    1.4298 H   0  0  0  0  0  0  0  0  0  0  0  0
    2.7117   -1.6207    2.2595 H   0  0  0  0  0  0  0  0  0  0  0  0
    4.9174   -2.6728    1.9778 H   0  0  0  0  0  0  0  0  0  0  0  0
    6.1647   -2.4123   -0.1523 H   0  0  0  0  0  0  0  0  0  0  0  0
    5.1738   -1.0945   -2.0068 H   0  0  0  0  0  0  0  0  0  0  0  0
    2.9866   -0.0382   -1.7534 H   0  0  0  0  0  0  0  0  0  0  0  0
  1  2  1  0
  2  3  2  0
  2  4  1  0
  4  5  2  3
  5  6  1  0
  6  7  1  0
  7  8  1  0
  8  9  1  0
  9 10  1  0
  4 11  1  0
 11 12  2  0
 11 13  1  0
 13 14  1  0
 14 15  2  0
 15 16  1  0
 16 17  2  0
 17 18  1  0
 18 19  2  0
 10  5  1  0
 19 14  1  0
  1 20  1  0
  1 21  1  0
  1 22  1  0
  7 23  1  0
  7 24  1  0
  8 25  1  0
  8 26  1  0
  9 27  1  0
  9 28  1  0
 13 29  1  0
 15 30  1  0
 16 31  1  0
 17 32  1  0
 18 33  1  0
 19 34  1  0
M  END
>  <Unnamed: 0>  (26) 
86

>  <ID>  (26) 
TRAIN_0086

>  <Canonical_Smiles>  (26) 
CC(=O)C(=C1SCCCS1)C(=O)Nc2ccccc2

>  <Inhibition>  (26) 
25.0

>  <TDC_conf_true_inhibitor>  (26) 
0

>  <TDC_conf_non_inhibitor>  (26) 
1

>  <split>  (26) 
1

$$$$
26
     RDKit          3D

 52 54  0  0  0  0  0  0  0  0999 V2000
    3.5411    0.3522   -2.5805 C   0  0  0  0  0  0  0  0  0  0  0  0
    3.2620    0.8481   -1.1638 C   0  0  0  0  0  0  0  0  0  0  0  0
    4.3170    0.4460   -0.2423 N   0  0  0  0  0  0  0  0  0  0  0  0
    5.5461    1.0523   -0.2266 C   0  0  0  0  0  0  0  0  0  0  0  0
    5.8532    1.9632   -0.9847 O   0  0  0  0  0  0  0  0  0  0  0  0
    6.5331    0.5264    0.7533 C   0  0  0  0  0  0  0  0  0  0  0  0
    6.1420   -0.0377    1.9741 C   0  0  0  0  0  0  0  0  0  0  0  0
    7.1095   -0.5044    2.8682 C   0  0  0  0  0  0  0  0  0  0  0  0
    8.4688   -0.4140    2.5485 C   0  0  0  0  0  0  0  0  0  0  0  0
    9.6055   -1.0114    3.7017 Cl  0  0  0  0  0  0  0  0  0  0  0  0
    8.8623    0.1617    1.3334 C   0  0  0  0  0  0  0  0  0  0  0  0
   10.5217    0.3208    0.8796 Cl  0  0  0  0  0  0  0  0  0  0  0  0
    7.8959    0.6359    0.4415 C   0  0  0  0  0  0  0  0  0  0  0  0
    1.9276    0.2641   -0.6490 C   0  0  0  0  0  0  0  0  0  0  0  0
    1.9182   -0.6189    0.2067 O   0  0  0  0  0  0  0  0  0  0  0  0
    0.8191    0.8171   -1.2708 N   0  0  0  0  0  0  0  0  0  0  0  0
   -0.5338    0.4497   -1.1073 C   0  0  0  0  0  0  0  0  0  0  0  0
   -0.9697   -0.5890   -0.2807 C   0  0  0  0  0  0  0  0  0  0  0  0
   -2.3284   -0.9158   -0.2030 C   0  0  0  0  0  0  0  0  0  0  0  0
   -3.2658   -0.1921   -0.9424 C   0  0  0  0  0  0  0  0  0  0  0  0
   -4.5806   -0.5663   -0.9326 O   0  0  0  0  0  0  0  0  0  0  0  0
   -5.2348   -0.3468    0.3330 C   0  0  0  0  0  0  0  0  0  0  0  0
   -5.8155   -1.6822    0.8119 C   0  0  0  0  0  0  0  0  0  0  0  0
   -7.1677   -1.9439    0.1578 C   0  0  0  0  0  0  0  0  0  0  0  0
   -8.1750   -0.9229    0.4712 N   0  0  0  0  0  0  0  0  0  0  0  0
   -7.6032    0.3678    0.8686 C   0  0  0  0  0  0  0  0  0  0  0  0
   -6.3288    0.7053    0.1041 C   0  0  0  0  0  0  0  0  0  0  0  0
   -2.8386    0.8421   -1.7745 C   0  0  0  0  0  0  0  0  0  0  0  0
   -3.9556    1.7605   -2.7158 Cl  0  0  0  0  0  0  0  0  0  0  0  0
   -1.4809    1.1657   -1.8527 C   0  0  0  0  0  0  0  0  0  0  0  0
    2.7371    0.6310   -3.2699 H   0  0  0  0  0  0  0  0  0  0  0  0
    3.6343   -0.7396   -2.6009 H   0  0  0  0  0  0  0  0  0  0  0  0
    4.4747    0.7684   -2.9714 H   0  0  0  0  0  0  0  0  0  0  0  0
    3.2006    1.9430   -1.1505 H   0  0  0  0  0  0  0  0  0  0  0  0
    4.1163   -0.3673    0.3309 H   0  0  0  0  0  0  0  0  0  0  0  0
    5.0982   -0.0881    2.2611 H   0  0  0  0  0  0  0  0  0  0  0  0
    6.7987   -0.9148    3.8258 H   0  0  0  0  0  0  0  0  0  0  0  0
    8.2015    1.0999   -0.4974 H   0  0  0  0  0  0  0  0  0  0  0  0
    0.9984    1.5612   -1.9376 H   0  0  0  0  0  0  0  0  0  0  0  0
   -0.2761   -1.1861    0.3041 H   0  0  0  0  0  0  0  0  0  0  0  0
   -2.6395   -1.7522    0.4155 H   0  0  0  0  0  0  0  0  0  0  0  0
   -4.5326    0.0186    1.0947 H   0  0  0  0  0  0  0  0  0  0  0  0
   -5.1325   -2.5062    0.5728 H   0  0  0  0  0  0  0  0  0  0  0  0
   -5.9375   -1.6657    1.9007 H   0  0  0  0  0  0  0  0  0  0  0  0
   -7.5465   -2.9309    0.4768 H   0  0  0  0  0  0  0  0  0  0  0  0
   -7.0357   -1.9947   -0.9368 H   0  0  0  0  0  0  0  0  0  0  0  0
   -8.7604   -0.7920   -0.3502 H   0  0  0  0  0  0  0  0  0  0  0  0
   -7.4066    0.3581    1.9479 H   0  0  0  0  0  0  0  0  0  0  0  0
   -8.3505    1.1526    0.7053 H   0  0  0  0  0  0  0  0  0  0  0  0
   -6.5567    0.8072   -0.9659 H   0  0  0  0  0  0  0  0  0  0  0  0
   -5.9576    1.6899    0.4229 H   0  0  0  0  0  0  0  0  0  0  0  0
   -1.1723    1.9743   -2.5094 H   0  0  0  0  0  0  0  0  0  0  0  0
  1  2  1  0
  2  3  1  0
  3  4  1  0
  4  5  2  0
  4  6  1  0
  6  7  2  0
  7  8  1  0
  8  9  2  0
  9 10  1  0
  9 11  1  0
 11 12  1  0
 11 13  2  0
  2 14  1  0
 14 15  2  0
 14 16  1  0
 16 17  1  0
 17 18  2  0
 18 19  1  0
 19 20  2  0
 20 21  1  0
 21 22  1  0
 22 23  1  0
 23 24  1  0
 24 25  1  0
 25 26  1  0
 26 27  1  0
 20 28  1  0
 28 29  1  0
 28 30  2  0
 13  6  1  0
 30 17  1  0
 27 22  1  0
  1 31  1  0
  1 32  1  0
  1 33  1  0
  2 34  1  0
  3 35  1  0
  7 36  1  0
  8 37  1  0
 13 38  1  0
 16 39  1  0
 18 40  1  0
 19 41  1  0
 22 42  1  0
 23 43  1  0
 23 44  1  0
 24 45  1  0
 24 46  1  0
 25 47  1  0
 26 48  1  0
 26 49  1  0
 27 50  1  0
 27 51  1  0
 30 52  1  0
M  END
>  <Unnamed: 0>  (27) 
91

>  <ID>  (27) 
TRAIN_0091

>  <Canonical_Smiles>  (27) 
CC(NC(=O)c1ccc(Cl)c(Cl)c1)C(=O)Nc2ccc(OC3CCNCC3)c(Cl)c2

>  <Inhibition>  (27) 
68.6

>  <TDC_conf_true_inhibitor>  (27) 
1

>  <TDC_conf_non_inhibitor>  (27) 
0

>  <split>  (27) 
1

$$$$
27
     RDKit          3D

 47 50  0  0  0  0  0  0  0  0999 V2000
   -0.6594    3.5344   -1.0384 C   0  0  0  0  0  0  0  0  0  0  0  0
   -1.6667    3.1425    0.0251 C   0  0  0  0  0  0  0  0  0  0  0  0
   -1.8122    1.7190   -0.0069 O   0  0  0  0  0  0  0  0  0  0  0  0
   -2.6299    1.2118    0.9556 C   0  0  0  0  0  0  0  0  0  0  0  0
   -3.2368    1.8887    1.7753 O   0  0  0  0  0  0  0  0  0  0  0  0
   -2.7377   -0.2223    0.8241 C   0  0  0  0  0  0  0  0  0  0  0  0
   -3.8914   -0.9507    1.0584 C   0  0  0  0  0  0  0  0  0  0  0  0
   -3.6627   -2.2946    0.6896 C   0  0  0  0  0  0  0  0  0  0  0  0
   -4.4797   -3.4425    0.6825 C   0  0  0  0  0  0  0  0  0  0  0  0
   -3.9360   -4.6629    0.2917 C   0  0  0  0  0  0  0  0  0  0  0  0
   -4.7598   -5.7509    0.3004 O   0  0  0  0  0  0  0  0  0  0  0  0
   -2.6041   -4.7711   -0.0769 C   0  0  0  0  0  0  0  0  0  0  0  0
   -1.7781   -3.6415   -0.0763 C   0  0  0  0  0  0  0  0  0  0  0  0
   -2.3289   -2.3915    0.2807 C   0  0  0  0  0  0  0  0  0  0  0  0
   -1.7582   -1.1181    0.4031 N   0  0  0  0  0  0  0  0  0  0  0  0
   -0.3782   -0.8185    0.1990 C   0  0  0  0  0  0  0  0  0  0  0  0
    0.2876   -1.3044   -0.9325 C   0  0  0  0  0  0  0  0  0  0  0  0
    1.6370   -1.0000   -1.1293 C   0  0  0  0  0  0  0  0  0  0  0  0
    2.3219   -0.2026   -0.2049 C   0  0  0  0  0  0  0  0  0  0  0  0
    1.6618    0.2634    0.9376 C   0  0  0  0  0  0  0  0  0  0  0  0
    0.3115   -0.0368    1.1374 C   0  0  0  0  0  0  0  0  0  0  0  0
    3.7585    0.0889   -0.4470 C   0  0  0  0  0  0  0  0  0  0  0  0
    4.4685   -0.7704   -0.9619 O   0  0  0  0  0  0  0  0  0  0  0  0
    4.2258    1.3351   -0.0766 N   0  0  0  0  0  0  0  0  0  0  0  0
    5.5176    1.8752   -0.5091 C   0  0  0  0  0  0  0  0  0  0  0  0
    4.9368    3.2576   -0.2047 C   0  0  0  0  0  0  0  0  0  0  0  0
    3.5462    2.6193   -0.2615 C   0  0  0  0  0  0  0  0  0  0  0  0
    0.3040    3.0479   -0.8540 H   0  0  0  0  0  0  0  0  0  0  0  0
   -0.9962    3.2074   -2.0277 H   0  0  0  0  0  0  0  0  0  0  0  0
   -0.5108    4.6176   -1.0554 H   0  0  0  0  0  0  0  0  0  0  0  0
   -1.3043    3.4593    1.0095 H   0  0  0  0  0  0  0  0  0  0  0  0
   -2.6325    3.6153   -0.1843 H   0  0  0  0  0  0  0  0  0  0  0  0
   -4.8263   -0.5328    1.4135 H   0  0  0  0  0  0  0  0  0  0  0  0
   -5.5202   -3.3837    0.9879 H   0  0  0  0  0  0  0  0  0  0  0  0
   -4.2513   -6.5280    0.0164 H   0  0  0  0  0  0  0  0  0  0  0  0
   -2.1781   -5.7295   -0.3593 H   0  0  0  0  0  0  0  0  0  0  0  0
   -0.7287   -3.7517   -0.3314 H   0  0  0  0  0  0  0  0  0  0  0  0
   -0.2324   -1.8847   -1.6911 H   0  0  0  0  0  0  0  0  0  0  0  0
    2.1532   -1.3772   -2.0104 H   0  0  0  0  0  0  0  0  0  0  0  0
    2.1961    0.8384    1.6896 H   0  0  0  0  0  0  0  0  0  0  0  0
   -0.1724    0.3150    2.0460 H   0  0  0  0  0  0  0  0  0  0  0  0
    6.3552    1.5692    0.1217 H   0  0  0  0  0  0  0  0  0  0  0  0
    5.7356    1.6818   -1.5639 H   0  0  0  0  0  0  0  0  0  0  0  0
    5.1326    4.0273   -0.9560 H   0  0  0  0  0  0  0  0  0  0  0  0
    5.2080    3.6460    0.7838 H   0  0  0  0  0  0  0  0  0  0  0  0
    2.8814    2.9063    0.5556 H   0  0  0  0  0  0  0  0  0  0  0  0
    3.0336    2.6991   -1.2250 H   0  0  0  0  0  0  0  0  0  0  0  0
  1  2  1  0
  2  3  1  0
  3  4  1  0
  4  5  2  0
  4  6  1  0
  6  7  2  0
  7  8  1  0
  8  9  2  0
  9 10  1  0
 10 11  1  0
 10 12  2  0
 12 13  1  0
 13 14  2  0
 14 15  1  0
 15 16  1  0
 16 17  2  0
 17 18  1  0
 18 19  2  0
 19 20  1  0
 20 21  2  0
 19 22  1  0
 22 23  2  0
 22 24  1  0
 24 25  1  0
 25 26  1  0
 26 27  1  0
 15  6  1  0
 14  8  1  0
 21 16  1  0
 27 24  1  0
  1 28  1  0
  1 29  1  0
  1 30  1  0
  2 31  1  0
  2 32  1  0
  7 33  1  0
  9 34  1  0
 11 35  1  0
 12 36  1  0
 13 37  1  0
 17 38  1  0
 18 39  1  0
 20 40  1  0
 21 41  1  0
 25 42  1  0
 25 43  1  0
 26 44  1  0
 26 45  1  0
 27 46  1  0
 27 47  1  0
M  END
>  <Unnamed: 0>  (28) 
126

>  <ID>  (28) 
TRAIN_0126

>  <Canonical_Smiles>  (28) 
CCOC(=O)c1cc2cc(O)ccc2n1c3ccc(cc3)C(=O)N4CCC4

>  <Inhibition>  (28) 
49.7

>  <TDC_conf_true_inhibitor>  (28) 
0

>  <TDC_conf_non_inhibitor>  (28) 
1

>  <split>  (28) 
1

$$$$
28
     RDKit          3D

 15 16  0  0  0  0  0  0  0  0999 V2000
   -2.3298   -0.5679    0.2352 N   0  0  0  0  0  0  0  0  0  0  0  0
   -0.9470   -0.6369    0.2514 C   0  0  0  0  0  0  0  0  0  0  0  0
   -0.4044   -1.7604    0.7697 N   0  0  0  0  0  0  0  0  0  0  0  0
    0.9384   -1.8763    0.8058 C   0  0  0  0  0  0  0  0  0  0  0  0
    1.8554   -0.9869    0.3892 N   0  0  0  0  0  0  0  0  0  0  0  0
    1.2680    0.1106   -0.1111 C   0  0  0  0  0  0  0  0  0  0  0  0
    1.9052    1.2033   -0.6206 N   0  0  0  0  0  0  0  0  0  0  0  0
    1.0675    2.1669   -1.0504 N   0  0  0  0  0  0  0  0  0  0  0  0
   -0.1416    1.6452   -0.8072 C   0  0  0  0  0  0  0  0  0  0  0  0
   -1.8728    2.6988   -1.2773 I   0  0  0  0  0  0  0  0  0  0  0  0
   -0.0889    0.3641   -0.2159 C   0  0  0  0  0  0  0  0  0  0  0  0
   -2.7352    0.3576    0.2563 H   0  0  0  0  0  0  0  0  0  0  0  0
   -2.7437   -1.2619    0.8473 H   0  0  0  0  0  0  0  0  0  0  0  0
    1.3237   -2.8013    1.2248 H   0  0  0  0  0  0  0  0  0  0  0  0
    2.9051    1.3449   -0.6973 H   0  0  0  0  0  0  0  0  0  0  0  0
  1  2  1  0
  2  3  2  0
  3  4  1  0
  4  5  2  0
  5  6  1  0
  6  7  1  0
  7  8  1  0
  8  9  2  0
  9 10  1  0
  9 11  1  0
 11  2  1  0
 11  6  2  0
  1 12  1  0
  1 13  1  0
  4 14  1  0
  7 15  1  0
M  END
>  <Unnamed: 0>  (29) 
149

>  <ID>  (29) 
TRAIN_0149

>  <Canonical_Smiles>  (29) 
Nc1ncnc2[nH]nc(I)c12

>  <Inhibition>  (29) 
39.4

>  <TDC_conf_true_inhibitor>  (29) 
0

>  <TDC_conf_non_inhibitor>  (29) 
1

>  <split>  (29) 
1

$$$$
29
     RDKit          3D

 54 58  0  0  0  0  0  0  0  0999 V2000
   -1.3541    0.7718   -3.2155 C   0  0  0  0  0  0  0  0  0  0  0  0
   -0.3970    0.9384   -2.0284 C   0  0  0  0  0  0  0  0  0  0  0  0
    0.4951   -0.1853   -1.8090 N   0  0  0  0  0  0  0  0  0  0  0  0
    0.4086   -1.4948   -2.3226 C   0  0  0  0  0  0  0  0  0  0  0  0
   -0.3938   -1.9527   -3.1173 O   0  0  0  0  0  0  0  0  0  0  0  0
    1.4725   -2.2153   -1.7587 N   0  0  0  0  0  0  0  0  0  0  0  0
    2.1915   -1.3588   -0.9376 C   0  0  0  0  0  0  0  0  0  0  0  0
    1.6250   -0.1081   -0.9799 C   0  0  0  0  0  0  0  0  0  0  0  0
    2.0838    0.9683   -0.3337 N   0  0  0  0  0  0  0  0  0  0  0  0
    3.1764    0.7318    0.4140 C   0  0  0  0  0  0  0  0  0  0  0  0
    3.8184   -0.4491    0.5507 N   0  0  0  0  0  0  0  0  0  0  0  0
    3.2768   -1.4889   -0.1357 C   0  0  0  0  0  0  0  0  0  0  0  0
    4.0837   -3.0378    0.0763 S   0  0  0  0  0  6  0  0  0  0  0  0
    3.9782   -3.7565   -1.1831 O   0  0  0  0  0  0  0  0  0  0  0  0
    3.5804   -3.6246    1.3044 O   0  0  0  0  0  0  0  0  0  0  0  0
    5.7935   -2.6329    0.3079 C   0  0  0  0  0  0  0  0  0  0  0  0
   -1.1597    1.4412   -0.8033 C   0  0  0  0  0  0  0  0  0  0  0  0
   -1.3551    2.8342   -0.7051 C   0  0  0  0  0  0  0  0  0  0  0  0
   -2.0562    3.4015    0.3653 C   0  0  0  0  0  0  0  0  0  0  0  0
   -2.2557    4.7899    0.4768 C   0  0  0  0  0  0  0  0  0  0  0  0
   -2.9606    5.3150    1.5579 C   0  0  0  0  0  0  0  0  0  0  0  0
   -3.4668    4.4573    2.5274 C   0  0  0  0  0  0  0  0  0  0  0  0
   -3.2645    3.0791    2.4093 C   0  0  0  0  0  0  0  0  0  0  0  0
   -2.5653    2.5327    1.3412 C   0  0  0  0  0  0  0  0  0  0  0  0
   -2.3959    1.2051    1.2706 N   0  0  0  0  0  0  0  0  0  0  0  0
   -1.7099    0.6623    0.2238 C   0  0  0  0  0  0  0  0  0  0  0  0
   -1.6093   -0.8030    0.3322 C   0  0  0  0  0  0  0  0  0  0  0  0
   -2.3940   -1.6191   -0.5021 C   0  0  0  0  0  0  0  0  0  0  0  0
   -2.3213   -3.0117   -0.4316 C   0  0  0  0  0  0  0  0  0  0  0  0
   -1.4770   -3.6174    0.4914 C   0  0  0  0  0  0  0  0  0  0  0  0
   -0.7177   -2.8325    1.3562 C   0  0  0  0  0  0  0  0  0  0  0  0
   -0.7744   -1.4289    1.2912 C   0  0  0  0  0  0  0  0  0  0  0  0
    0.0041   -0.6372    2.3095 C   0  0  0  0  0  0  0  0  0  0  0  0
   -0.8055    0.5051   -4.1254 H   0  0  0  0  0  0  0  0  0  0  0  0
   -1.8944    1.7031   -3.4208 H   0  0  0  0  0  0  0  0  0  0  0  0
   -2.1054   -0.0020   -3.0335 H   0  0  0  0  0  0  0  0  0  0  0  0
    0.2872    1.7476   -2.3255 H   0  0  0  0  0  0  0  0  0  0  0  0
    1.6601   -3.1925   -1.9432 H   0  0  0  0  0  0  0  0  0  0  0  0
    3.5818    1.5758    0.9645 H   0  0  0  0  0  0  0  0  0  0  0  0
    5.9100   -2.0604    1.2298 H   0  0  0  0  0  0  0  0  0  0  0  0
    6.1459   -2.0634   -0.5542 H   0  0  0  0  0  0  0  0  0  0  0  0
    6.3533   -3.5678    0.3856 H   0  0  0  0  0  0  0  0  0  0  0  0
   -0.9521    3.4879   -1.4772 H   0  0  0  0  0  0  0  0  0  0  0  0
   -1.8630    5.4667   -0.2783 H   0  0  0  0  0  0  0  0  0  0  0  0
   -3.1145    6.3876    1.6422 H   0  0  0  0  0  0  0  0  0  0  0  0
   -4.0197    4.8526    3.3755 H   0  0  0  0  0  0  0  0  0  0  0  0
   -3.6632    2.4112    3.1694 H   0  0  0  0  0  0  0  0  0  0  0  0
   -3.0749   -1.1687   -1.2209 H   0  0  0  0  0  0  0  0  0  0  0  0
   -2.9251   -3.6190   -1.1007 H   0  0  0  0  0  0  0  0  0  0  0  0
   -1.4227   -4.7012    0.5505 H   0  0  0  0  0  0  0  0  0  0  0  0
   -0.0848   -3.3223    2.0942 H   0  0  0  0  0  0  0  0  0  0  0  0
   -0.6289   -0.4241    3.1766 H   0  0  0  0  0  0  0  0  0  0  0  0
    0.3737    0.3063    1.8997 H   0  0  0  0  0  0  0  0  0  0  0  0
    0.8828   -1.1965    2.6493 H   0  0  0  0  0  0  0  0  0  0  0  0
  1  2  1  0
  2  3  1  0
  3  4  1  0
  4  5  2  0
  4  6  1  0
  6  7  1  0
  7  8  2  0
  8  9  1  0
  9 10  2  0
 10 11  1  0
 11 12  2  0
 12 13  1  0
 13 14  2  0
 13 15  2  0
 13 16  1  0
  2 17  1  0
 17 18  2  0
 18 19  1  0
 19 20  2  0
 20 21  1  0
 21 22  2  0
 22 23  1  0
 23 24  2  0
 24 25  1  0
 25 26  2  0
 26 27  1  0
 27 28  2  0
 28 29  1  0
 29 30  2  0
 30 31  1  0
 31 32  2  0
 32 33  1  0
  8  3  1  0
 12  7  1  0
 26 17  1  0
 24 19  1  0
 32 27  1  0
  1 34  1  0
  1 35  1  0
  1 36  1  0
  2 37  1  0
  6 38  1  0
 10 39  1  0
 16 40  1  0
 16 41  1  0
 16 42  1  0
 18 43  1  0
 20 44  1  0
 21 45  1  0
 22 46  1  0
 23 47  1  0
 28 48  1  0
 29 49  1  0
 30 50  1  0
 31 51  1  0
 33 52  1  0
 33 53  1  0
 33 54  1  0
M  END
>  <Unnamed: 0>  (30) 
150

>  <ID>  (30) 
TRAIN_0150

>  <Canonical_Smiles>  (30) 
CC(N1C(=O)Nc2c1ncnc2S(=O)(=O)C)c3cc4ccccc4nc3c5ccccc5C

>  <Inhibition>  (30) 
32.2

>  <TDC_conf_true_inhibitor>  (30) 
0

>  <TDC_conf_non_inhibitor>  (30) 
1

>  <split>  (30) 
1

$$$$
30
     RDKit          3D

 41 44  0  0  0  0  0  0  0  0999 V2000
   -2.2967   -2.8112   -0.4265 C   0  0  0  0  0  0  0  0  0  0  0  0
   -1.8697   -1.9835    0.7830 C   0  0  0  0  0  0  0  0  0  0  0  0
   -1.4579   -2.8995    1.9436 C   0  0  0  0  0  0  0  0  0  0  0  0
   -0.8456   -1.0174    0.4195 N   0  0  0  0  0  0  0  0  0  0  0  0
    0.5307   -1.3495    0.2861 C   0  0  0  0  0  0  0  0  0  0  0  0
    1.0076   -2.4715    0.3739 O   0  0  0  0  0  0  0  0  0  0  0  0
    1.2141   -0.1370    0.0119 N   0  0  0  0  0  0  0  0  0  0  0  0
    2.6038   -0.0079   -0.2209 C   0  0  0  0  0  0  0  0  0  0  0  0
    3.5052   -0.8971    0.3916 C   0  0  0  0  0  0  0  0  0  0  0  0
    4.8873   -0.8060    0.1791 C   0  0  0  0  0  0  0  0  0  0  0  0
    5.3847    0.1748   -0.6675 C   0  0  0  0  0  0  0  0  0  0  0  0
    6.7240    0.2921   -0.8978 O   0  0  0  0  0  0  0  0  0  0  0  0
    4.5061    1.0464   -1.3002 C   0  0  0  0  0  0  0  0  0  0  0  0
    4.9680    1.9823   -2.1424 F   0  0  0  0  0  0  0  0  0  0  0  0
    3.1302    0.9571   -1.0884 C   0  0  0  0  0  0  0  0  0  0  0  0
    0.2665    0.9030   -0.0213 C   0  0  0  0  0  0  0  0  0  0  0  0
    0.4091    2.2632   -0.1076 C   0  0  0  0  0  0  0  0  0  0  0  0
   -0.6512    3.0997   -0.1176 N   0  0  0  0  0  0  0  0  0  0  0  0
   -1.8918    2.5830   -0.0585 C   0  0  0  0  0  0  0  0  0  0  0  0
   -2.9419    3.4829   -0.1263 C   0  0  0  0  0  0  0  0  0  0  0  0
   -4.2596    3.0522   -0.1097 C   0  0  0  0  0  0  0  0  0  0  0  0
   -5.2512    3.9488   -0.1842 F   0  0  0  0  0  0  0  0  0  0  0  0
   -4.5616    1.7062   -0.0386 C   0  0  0  0  0  0  0  0  0  0  0  0
   -3.5212    0.7806    0.0376 C   0  0  0  0  0  0  0  0  0  0  0  0
   -2.1610    1.1934    0.0608 C   0  0  0  0  0  0  0  0  0  0  0  0
   -1.0156    0.3689    0.1504 C   0  0  0  0  0  0  0  0  0  0  0  0
   -1.4657   -3.4105   -0.8140 H   0  0  0  0  0  0  0  0  0  0  0  0
   -2.6435   -2.1658   -1.2405 H   0  0  0  0  0  0  0  0  0  0  0  0
   -3.1128   -3.4927   -0.1645 H   0  0  0  0  0  0  0  0  0  0  0  0
   -2.7278   -1.4392    1.1765 H   0  0  0  0  0  0  0  0  0  0  0  0
   -0.7022   -3.6337    1.6499 H   0  0  0  0  0  0  0  0  0  0  0  0
   -1.0598   -2.3152    2.7801 H   0  0  0  0  0  0  0  0  0  0  0  0
   -2.3250   -3.4617    2.3081 H   0  0  0  0  0  0  0  0  0  0  0  0
    3.1489   -1.6699    1.0708 H   0  0  0  0  0  0  0  0  0  0  0  0
    5.5459   -1.5077    0.6821 H   0  0  0  0  0  0  0  0  0  0  0  0
    7.1946   -0.4044   -0.4118 H   0  0  0  0  0  0  0  0  0  0  0  0
    2.5008    1.6196   -1.6713 H   0  0  0  0  0  0  0  0  0  0  0  0
    1.3694    2.7627   -0.1364 H   0  0  0  0  0  0  0  0  0  0  0  0
   -2.7363    4.5467   -0.2045 H   0  0  0  0  0  0  0  0  0  0  0  0
   -5.5979    1.3831   -0.0556 H   0  0  0  0  0  0  0  0  0  0  0  0
   -3.8011   -0.2650    0.0318 H   0  0  0  0  0  0  0  0  0  0  0  0
  1  2  1  0
  2  3  1  0
  2  4  1  0
  4  5  1  0
  5  6  2  0
  5  7  1  0
  7  8  1  0
  8  9  2  0
  9 10  1  0
 10 11  2  0
 11 12  1  0
 11 13  1  0
 13 14  1  0
 13 15  2  0
  7 16  1  0
 16 17  2  0
 17 18  1  0
 18 19  2  0
 19 20  1  0
 20 21  2  0
 21 22  1  0
 21 23  1  0
 23 24  2  0
 24 25  1  0
 25 26  2  0
 26  4  1  0
 15  8  1  0
 26 16  1  0
 25 19  1  0
  1 27  1  0
  1 28  1  0
  1 29  1  0
  2 30  1  0
  3 31  1  0
  3 32  1  0
  3 33  1  0
  9 34  1  0
 10 35  1  0
 12 36  1  0
 15 37  1  0
 17 38  1  0
 20 39  1  0
 23 40  1  0
 24 41  1  0
M  END
>  <Unnamed: 0>  (31) 
160

>  <ID>  (31) 
TRAIN_0160

>  <Canonical_Smiles>  (31) 
CC(C)N1C(=O)N(c2ccc(O)c(F)c2)c3cnc4cc(F)ccc4c13

>  <Inhibition>  (31) 
31.5

>  <TDC_conf_true_inhibitor>  (31) 
1

>  <TDC_conf_non_inhibitor>  (31) 
0

>  <split>  (31) 
1

$$$$
31
     RDKit          3D

 40 41  0  0  0  0  0  0  0  0999 V2000
   -1.1814   -3.8723   -2.0670 O   0  0  0  0  0  0  0  0  0  0  0  0
   -1.5067   -3.9036   -0.7644 C   0  0  0  0  0  0  0  0  0  0  0  0
   -2.4307   -4.5925   -0.3647 O   0  0  0  0  0  0  0  0  0  0  0  0
   -0.6554   -3.0063    0.0824 C   0  0  0  0  0  0  0  0  0  0  0  0
   -1.0873   -1.5410   -0.0386 C   0  0  1  0  0  0  0  0  0  0  0  0
   -2.5186   -1.3263    0.5061 C   0  0  0  0  0  0  0  0  0  0  0  0
   -3.0152    0.0901    0.3277 C   0  0  0  0  0  0  0  0  0  0  0  0
   -3.6855    0.4709   -0.8439 C   0  0  0  0  0  0  0  0  0  0  0  0
   -4.1235    1.7849   -0.9944 C   0  0  0  0  0  0  0  0  0  0  0  0
   -4.7678    2.1365   -2.1151 F   0  0  0  0  0  0  0  0  0  0  0  0
   -3.8970    2.7243    0.0062 C   0  0  0  0  0  0  0  0  0  0  0  0
   -4.3223    3.9859   -0.1455 F   0  0  0  0  0  0  0  0  0  0  0  0
   -3.2285    2.3681    1.1698 C   0  0  0  0  0  0  0  0  0  0  0  0
   -2.7917    1.0562    1.3196 C   0  0  0  0  0  0  0  0  0  0  0  0
   -2.1322    0.7194    2.4384 F   0  0  0  0  0  0  0  0  0  0  0  0
   -0.1411   -0.6738    0.6746 N   0  0  0  0  0  0  0  0  0  0  0  0
    1.0938   -0.3623    0.1430 C   0  0  0  0  0  0  0  0  0  0  0  0
    1.4547   -0.7727   -0.9507 O   0  0  0  0  0  0  0  0  0  0  0  0
    1.7981    0.4554    0.9982 N   0  0  0  0  0  0  0  0  0  0  0  0
    3.1177    0.9242    0.8459 C   0  0  0  0  0  0  0  0  0  0  0  0
    3.9862    0.4908   -0.1581 C   0  0  0  0  0  0  0  0  0  0  0  0
    5.2888    0.9973   -0.2396 C   0  0  0  0  0  0  0  0  0  0  0  0
    5.7284    1.9383    0.6882 C   0  0  0  0  0  0  0  0  0  0  0  0
    7.6613    2.6891    0.5672 I   0  0  0  0  0  0  0  0  0  0  0  0
    4.8754    2.3757    1.6985 C   0  0  0  0  0  0  0  0  0  0  0  0
    3.5748    1.8672    1.7761 C   0  0  0  0  0  0  0  0  0  0  0  0
   -1.7866   -4.5115   -2.4981 H   0  0  0  0  0  0  0  0  0  0  0  0
    0.3899   -3.1504   -0.2151 H   0  0  0  0  0  0  0  0  0  0  0  0
   -0.7184   -3.3489    1.1226 H   0  0  0  0  0  0  0  0  0  0  0  0
   -1.0622   -1.2471   -1.0965 H   0  0  0  0  0  0  0  0  0  0  0  0
   -3.2262   -1.9980    0.0052 H   0  0  0  0  0  0  0  0  0  0  0  0
   -2.5616   -1.5903    1.5712 H   0  0  0  0  0  0  0  0  0  0  0  0
   -3.8719   -0.2403   -1.6440 H   0  0  0  0  0  0  0  0  0  0  0  0
   -3.0492    3.1023    1.9462 H   0  0  0  0  0  0  0  0  0  0  0  0
   -0.2202   -0.6347    1.6815 H   0  0  0  0  0  0  0  0  0  0  0  0
    1.2577    0.8670    1.7438 H   0  0  0  0  0  0  0  0  0  0  0  0
    3.6818   -0.2463   -0.8953 H   0  0  0  0  0  0  0  0  0  0  0  0
    5.9419    0.6435   -1.0334 H   0  0  0  0  0  0  0  0  0  0  0  0
    5.2047    3.1086    2.4303 H   0  0  0  0  0  0  0  0  0  0  0  0
    2.9265    2.2226    2.5728 H   0  0  0  0  0  0  0  0  0  0  0  0
  1  2  1  0
  2  3  2  0
  2  4  1  0
  4  5  1  0
  5  6  1  0
  6  7  1  0
  7  8  2  0
  8  9  1  0
  9 10  1  0
  9 11  2  0
 11 12  1  0
 11 13  1  0
 13 14  2  0
 14 15  1  0
  5 16  1  0
 16 17  1  0
 17 18  2  0
 17 19  1  0
 19 20  1  0
 20 21  2  0
 21 22  1  0
 22 23  2  0
 23 24  1  0
 23 25  1  0
 25 26  2  0
 14  7  1  0
 26 20  1  0
  1 27  1  0
  4 28  1  0
  4 29  1  0
  5 30  1  6
  6 31  1  0
  6 32  1  0
  8 33  1  0
 13 34  1  0
 16 35  1  0
 19 36  1  0
 21 37  1  0
 22 38  1  0
 25 39  1  0
 26 40  1  0
M  END
>  <Unnamed: 0>  (32) 
161

>  <ID>  (32) 
TRAIN_0161

>  <Canonical_Smiles>  (32) 
OC(=O)C[C@@H](Cc1cc(F)c(F)cc1F)NC(=O)Nc2ccc(I)cc2

>  <Inhibition>  (32) 
27.0

>  <TDC_conf_true_inhibitor>  (32) 
0

>  <TDC_conf_non_inhibitor>  (32) 
1

>  <split>  (32) 
1

$$$$
32
     RDKit          3D

 36 38  0  0  0  0  0  0  0  0999 V2000
    5.4260    0.1960    1.8783 C   0  0  0  0  0  0  0  0  0  0  0  0
    5.0747   -0.2312    0.5682 O   0  0  0  0  0  0  0  0  0  0  0  0
    3.8610    0.1801    0.0903 C   0  0  0  0  0  0  0  0  0  0  0  0
    3.5673   -0.2513   -1.2053 C   0  0  0  0  0  0  0  0  0  0  0  0
    2.3602    0.0947   -1.8180 C   0  0  0  0  0  0  0  0  0  0  0  0
    1.4249    0.8835   -1.1383 C   0  0  0  0  0  0  0  0  0  0  0  0
    0.1097    1.2507   -1.7789 C   0  0  0  0  0  0  0  0  0  0  0  0
   -1.0028    0.5325   -1.1932 N   0  0  0  0  0  0  0  0  0  0  0  0
   -1.2077   -0.8892   -1.3996 C   0  0  0  0  0  0  0  0  0  0  0  0
   -2.3781   -1.1787   -0.5213 C   0  0  0  0  0  0  0  0  0  0  0  0
   -3.0640   -2.3578   -0.3096 C   0  0  0  0  0  0  0  0  0  0  0  0
   -2.5776   -3.9536   -1.1912 Br  0  0  0  0  0  0  0  0  0  0  0  0
   -4.1494   -2.3536    0.5712 C   0  0  0  0  0  0  0  0  0  0  0  0
   -4.5309   -1.1713    1.2363 C   0  0  0  0  0  0  0  0  0  0  0  0
   -3.8182    0.0200    1.0664 C   0  0  0  0  0  0  0  0  0  0  0  0
   -4.2927    1.2111    1.6192 N   0  0  0  0  0  0  0  0  0  0  0  0
   -2.7696   -0.0184    0.1545 C   0  0  0  0  0  0  0  0  0  0  0  0
   -1.8612    1.0657   -0.2512 C   0  0  0  0  0  0  0  0  0  0  0  0
   -1.8746    2.1954    0.2020 O   0  0  0  0  0  0  0  0  0  0  0  0
    1.7225    1.3126    0.1627 C   0  0  0  0  0  0  0  0  0  0  0  0
    2.9323    0.9644    0.7732 C   0  0  0  0  0  0  0  0  0  0  0  0
    5.4889    1.2878    1.9344 H   0  0  0  0  0  0  0  0  0  0  0  0
    4.7273   -0.1995    2.6229 H   0  0  0  0  0  0  0  0  0  0  0  0
    6.4177   -0.2063    2.1062 H   0  0  0  0  0  0  0  0  0  0  0  0
    4.2878   -0.8633   -1.7426 H   0  0  0  0  0  0  0  0  0  0  0  0
    2.1604   -0.2574   -2.8270 H   0  0  0  0  0  0  0  0  0  0  0  0
   -0.0525    2.3295   -1.6683 H   0  0  0  0  0  0  0  0  0  0  0  0
    0.1205    1.0365   -2.8538 H   0  0  0  0  0  0  0  0  0  0  0  0
   -0.3212   -1.4410   -1.0745 H   0  0  0  0  0  0  0  0  0  0  0  0
   -1.4266   -1.0671   -2.4561 H   0  0  0  0  0  0  0  0  0  0  0  0
   -4.7239   -3.2616    0.7421 H   0  0  0  0  0  0  0  0  0  0  0  0
   -5.4045   -1.1928    1.8843 H   0  0  0  0  0  0  0  0  0  0  0  0
   -3.6018    1.9666    1.5893 H   0  0  0  0  0  0  0  0  0  0  0  0
   -4.7426    1.1216    2.5232 H   0  0  0  0  0  0  0  0  0  0  0  0
    1.0052    1.9234    0.7101 H   0  0  0  0  0  0  0  0  0  0  0  0
    3.1135    1.3222    1.7810 H   0  0  0  0  0  0  0  0  0  0  0  0
  1  2  1  0
  2  3  1  0
  3  4  2  0
  4  5  1  0
  5  6  2  0
  6  7  1  0
  7  8  1  0
  8  9  1  0
  9 10  1  0
 10 11  2  0
 11 12  1  0
 11 13  1  0
 13 14  2  0
 14 15  1  0
 15 16  1  0
 15 17  2  0
 17 18  1  0
 18 19  2  0
  6 20  1  0
 20 21  2  0
 21  3  1  0
 18  8  1  0
 17 10  1  0
  1 22  1  0
  1 23  1  0
  1 24  1  0
  4 25  1  0
  5 26  1  0
  7 27  1  0
  7 28  1  0
  9 29  1  0
  9 30  1  0
 13 31  1  0
 14 32  1  0
 16 33  1  0
 16 34  1  0
 20 35  1  0
 21 36  1  0
M  END
>  <Unnamed: 0>  (33) 
163

>  <ID>  (33) 
TRAIN_0163

>  <Canonical_Smiles>  (33) 
COc1ccc(CN2Cc3c(Br)ccc(N)c3C2=O)cc1

>  <Inhibition>  (33) 
38.2

>  <TDC_conf_true_inhibitor>  (33) 
1

>  <TDC_conf_non_inhibitor>  (33) 
0

>  <split>  (33) 
1

$$$$
33
     RDKit          3D

 41 43  0  0  0  0  0  0  0  0999 V2000
   -4.7696    1.2651    2.4085 C   0  0  0  0  0  0  0  0  0  0  0  0
   -4.7829    0.3083    1.3594 O   0  0  0  0  0  0  0  0  0  0  0  0
   -3.6611    0.2040    0.5713 C   0  0  0  0  0  0  0  0  0  0  0  0
   -2.5154    1.0009    0.7283 C   0  0  0  0  0  0  0  0  0  0  0  0
   -1.4508    0.7984   -0.1326 C   0  0  0  0  0  0  0  0  0  0  0  0
   -0.1257    1.4843   -0.1876 C   0  0  0  0  0  0  0  0  0  0  0  0
    0.5097    0.8394   -1.3233 N   0  0  0  0  0  0  0  0  0  0  0  0
    1.8673    1.1340   -1.7296 C   0  0  0  0  0  0  0  0  0  0  0  0
    2.8832    0.5980   -0.7501 C   0  0  0  0  0  0  0  0  0  0  0  0
    3.0896   -0.7850   -0.6350 C   0  0  0  0  0  0  0  0  0  0  0  0
    4.0182   -1.2908    0.2776 C   0  0  0  0  0  0  0  0  0  0  0  0
    4.7533   -0.4191    1.0883 C   0  0  0  0  0  0  0  0  0  0  0  0
    4.5524    0.9621    0.9791 C   0  0  0  0  0  0  0  0  0  0  0  0
    3.6220    1.4666    0.0655 C   0  0  0  0  0  0  0  0  0  0  0  0
    5.7279   -0.9997    2.0432 C   0  0  0  0  0  0  0  0  0  0  0  0
    5.9598   -2.1844    2.1969 O   0  0  0  0  0  0  0  0  0  0  0  0
    6.3700   -0.0654    2.7674 O   0  0  0  0  0  0  0  0  0  0  0  0
   -0.2638   -0.1638   -1.8749 C   0  0  0  0  0  0  0  0  0  0  0  0
    0.0066   -0.9138   -2.7923 O   0  0  0  0  0  0  0  0  0  0  0  0
   -1.5252   -0.1754   -1.1251 C   0  0  0  0  0  0  0  0  0  0  0  0
   -2.6330   -0.9795   -1.3104 C   0  0  0  0  0  0  0  0  0  0  0  0
   -3.7191   -0.7882   -0.4509 C   0  0  0  0  0  0  0  0  0  0  0  0
   -4.8874   -1.5102   -0.5150 O   0  0  0  0  0  0  0  0  0  0  0  0
   -4.9819   -2.5191   -1.5113 C   0  0  0  0  0  0  0  0  0  0  0  0
   -3.9802    1.0447    3.1346 H   0  0  0  0  0  0  0  0  0  0  0  0
   -4.6729    2.2819    2.0140 H   0  0  0  0  0  0  0  0  0  0  0  0
   -5.7287    1.2018    2.9314 H   0  0  0  0  0  0  0  0  0  0  0  0
   -2.4390    1.7613    1.4959 H   0  0  0  0  0  0  0  0  0  0  0  0
   -0.2245    2.5544   -0.3894 H   0  0  0  0  0  0  0  0  0  0  0  0
    0.4556    1.2981    0.7196 H   0  0  0  0  0  0  0  0  0  0  0  0
    2.0589    0.6963   -2.7166 H   0  0  0  0  0  0  0  0  0  0  0  0
    1.9573    2.2210   -1.8372 H   0  0  0  0  0  0  0  0  0  0  0  0
    2.5225   -1.4753   -1.2592 H   0  0  0  0  0  0  0  0  0  0  0  0
    4.1642   -2.3668    0.3521 H   0  0  0  0  0  0  0  0  0  0  0  0
    5.1160    1.6544    1.5999 H   0  0  0  0  0  0  0  0  0  0  0  0
    3.4811    2.5431   -0.0044 H   0  0  0  0  0  0  0  0  0  0  0  0
    6.9702   -0.5889    3.3390 H   0  0  0  0  0  0  0  0  0  0  0  0
   -2.6197   -1.7168   -2.1032 H   0  0  0  0  0  0  0  0  0  0  0  0
   -5.9641   -2.9921   -1.4157 H   0  0  0  0  0  0  0  0  0  0  0  0
   -4.9167   -2.0891   -2.5161 H   0  0  0  0  0  0  0  0  0  0  0  0
   -4.2237   -3.2948   -1.3615 H   0  0  0  0  0  0  0  0  0  0  0  0
  1  2  1  0
  2  3  1  0
  3  4  2  0
  4  5  1  0
  5  6  1  0
  6  7  1  0
  7  8  1  0
  8  9  1  0
  9 10  2  0
 10 11  1  0
 11 12  2  0
 12 13  1  0
 13 14  2  0
 12 15  1  0
 15 16  2  0
 15 17  1  0
  7 18  1  0
 18 19  2  0
 18 20  1  0
 20 21  1  0
 21 22  2  0
 22 23  1  0
 23 24  1  0
 22  3  1  0
 20  5  2  0
 14  9  1  0
  1 25  1  0
  1 26  1  0
  1 27  1  0
  4 28  1  0
  6 29  1  0
  6 30  1  0
  8 31  1  0
  8 32  1  0
 10 33  1  0
 11 34  1  0
 13 35  1  0
 14 36  1  0
 17 37  1  0
 21 38  1  0
 24 39  1  0
 24 40  1  0
 24 41  1  0
M  END
>  <Unnamed: 0>  (34) 
490

>  <ID>  (34) 
TRAIN_0490

>  <Canonical_Smiles>  (34) 
COc1cc2CN(Cc3ccc(cc3)C(=O)O)C(=O)c2cc1OC

>  <Inhibition>  (34) 
28.4

>  <TDC_conf_true_inhibitor>  (34) 
0

>  <TDC_conf_non_inhibitor>  (34) 
1

>  <split>  (34) 
1

$$$$
34
     RDKit          3D

 52 56  0  0  0  0  0  0  0  0999 V2000
   -4.8197   -2.5509    1.1286 C   0  0  0  0  0  0  0  0  0  0  0  0
   -4.6583   -1.1614    0.7463 N   0  0  0  0  0  0  0  0  0  0  0  0
   -3.4410   -0.5029    0.7008 C   0  0  0  0  0  0  0  0  0  0  0  0
   -3.7200    0.7980    0.3104 C   0  0  0  0  0  0  0  0  0  0  0  0
   -5.1130    0.9197    0.0795 C   0  0  0  0  0  0  0  0  0  0  0  0
   -5.9396    1.9842   -0.3307 C   0  0  0  0  0  0  0  0  0  0  0  0
   -7.3175    1.7821   -0.4457 C   0  0  0  0  0  0  0  0  0  0  0  0
   -7.8743    0.5419   -0.1522 C   0  0  0  0  0  0  0  0  0  0  0  0
   -7.0726   -0.5280    0.2592 C   0  0  0  0  0  0  0  0  0  0  0  0
   -5.6870   -0.3185    0.3667 C   0  0  0  0  0  0  0  0  0  0  0  0
   -2.1667   -1.0874    1.0878 C   0  0  0  0  0  0  0  0  0  0  0  0
   -2.0928   -1.9376    1.9747 O   0  0  0  0  0  0  0  0  0  0  0  0
   -1.0112   -0.6196    0.4375 N   0  0  0  0  0  0  0  0  0  0  0  0
   -1.0106   -0.4216   -1.0135 C   0  0  0  0  0  0  0  0  0  0  0  0
    0.1125    0.5085   -1.4523 C   0  0  0  0  0  0  0  0  0  0  0  0
    1.4662    0.0056   -0.9364 C   0  0  0  0  0  0  0  0  0  0  0  0
    1.4103   -0.1506    0.5877 C   0  0  0  0  0  0  0  0  0  0  0  0
    0.2616   -1.0646    0.9964 C   0  0  0  0  0  0  0  0  0  0  0  0
    2.4968    0.9716   -1.3367 N   0  0  0  0  0  0  0  0  0  0  0  0
    3.8204    0.5714   -1.1667 C   0  0  0  0  0  0  0  0  0  0  0  0
    4.3622   -0.5777   -1.7312 C   0  0  0  0  0  0  0  0  0  0  0  0
    5.6467   -0.9668   -1.5505 N   0  0  0  0  0  0  0  0  0  0  0  0
    6.4034   -0.1551   -0.7922 C   0  0  0  0  0  0  0  0  0  0  0  0
    7.7351   -0.4764   -0.5588 C   0  0  0  0  0  0  0  0  0  0  0  0
    8.5535    0.3408    0.2229 C   0  0  0  0  0  0  0  0  0  0  0  0
    8.0304    1.4993    0.7816 C   0  0  0  0  0  0  0  0  0  0  0  0
    6.6942    1.8321    0.5519 C   0  0  0  0  0  0  0  0  0  0  0  0
    5.8692    1.0282   -0.2251 C   0  0  0  0  0  0  0  0  0  0  0  0
    4.5822    1.3853   -0.4150 N   0  0  0  0  0  0  0  0  0  0  0  0
   -4.7300   -2.6188    2.2158 H   0  0  0  0  0  0  0  0  0  0  0  0
   -4.0485   -3.1458    0.6312 H   0  0  0  0  0  0  0  0  0  0  0  0
   -5.7972   -2.9183    0.8107 H   0  0  0  0  0  0  0  0  0  0  0  0
   -2.9887    1.5906    0.2149 H   0  0  0  0  0  0  0  0  0  0  0  0
   -5.5126    2.9575   -0.5526 H   0  0  0  0  0  0  0  0  0  0  0  0
   -7.9575    2.6026   -0.7603 H   0  0  0  0  0  0  0  0  0  0  0  0
   -8.9498    0.4020   -0.2380 H   0  0  0  0  0  0  0  0  0  0  0  0
   -7.5259   -1.4861    0.4920 H   0  0  0  0  0  0  0  0  0  0  0  0
   -0.8880   -1.4109   -1.4732 H   0  0  0  0  0  0  0  0  0  0  0  0
   -1.9654   -0.0371   -1.3756 H   0  0  0  0  0  0  0  0  0  0  0  0
    0.1278    0.5794   -2.5466 H   0  0  0  0  0  0  0  0  0  0  0  0
   -0.0815    1.5206   -1.0720 H   0  0  0  0  0  0  0  0  0  0  0  0
    1.6584   -0.9714   -1.3985 H   0  0  0  0  0  0  0  0  0  0  0  0
    2.3519   -0.5586    0.9730 H   0  0  0  0  0  0  0  0  0  0  0  0
    1.2773    0.8335    1.0572 H   0  0  0  0  0  0  0  0  0  0  0  0
    0.4411   -2.0913    0.6532 H   0  0  0  0  0  0  0  0  0  0  0  0
    0.1949   -1.0911    2.0906 H   0  0  0  0  0  0  0  0  0  0  0  0
    2.4258    1.8458   -0.8141 H   0  0  0  0  0  0  0  0  0  0  0  0
    3.7719   -1.2252   -2.3690 H   0  0  0  0  0  0  0  0  0  0  0  0
    8.1425   -1.3828   -1.0002 H   0  0  0  0  0  0  0  0  0  0  0  0
    9.5928    0.0700    0.3912 H   0  0  0  0  0  0  0  0  0  0  0  0
    8.6562    2.1458    1.3913 H   0  0  0  0  0  0  0  0  0  0  0  0
    6.2843    2.7397    0.9883 H   0  0  0  0  0  0  0  0  0  0  0  0
  1  2  1  0
  2  3  1  0
  3  4  2  0
  4  5  1  0
  5  6  2  0
  6  7  1  0
  7  8  2  0
  8  9  1  0
  9 10  2  0
  3 11  1  0
 11 12  2  0
 11 13  1  0
 13 14  1  0
 14 15  1  0
 15 16  1  0
 16 17  1  0
 17 18  1  0
 16 19  1  0
 19 20  1  0
 20 21  2  0
 21 22  1  0
 22 23  2  0
 23 24  1  0
 24 25  2  0
 25 26  1  0
 26 27  2  0
 27 28  1  0
 28 29  2  0
 10  2  1  0
 10  5  1  0
 18 13  1  0
 29 20  1  0
 28 23  1  0
  1 30  1  0
  1 31  1  0
  1 32  1  0
  4 33  1  0
  6 34  1  0
  7 35  1  0
  8 36  1  0
  9 37  1  0
 14 38  1  0
 14 39  1  0
 15 40  1  0
 15 41  1  0
 16 42  1  0
 17 43  1  0
 17 44  1  0
 18 45  1  0
 18 46  1  0
 19 47  1  0
 21 48  1  0
 24 49  1  0
 25 50  1  0
 26 51  1  0
 27 52  1  0
M  END
>  <Unnamed: 0>  (35) 
167

>  <ID>  (35) 
TRAIN_0167

>  <Canonical_Smiles>  (35) 
Cn1c(cc2ccccc12)C(=O)N3CCC(CC3)Nc4cnc5ccccc5n4

>  <Inhibition>  (35) 
33.8

>  <TDC_conf_true_inhibitor>  (35) 
0

>  <TDC_conf_non_inhibitor>  (35) 
1

>  <split>  (35) 
1

$$$$
35
     RDKit          3D

 43 46  0  0  0  0  0  0  0  0999 V2000
   -4.5614    1.8518    2.0462 C   0  0  0  0  0  0  0  0  0  0  0  0
   -3.8310    2.0540    0.7191 C   0  0  0  0  0  0  0  0  0  0  0  0
   -4.8027    2.3577   -0.4206 C   0  0  0  0  0  0  0  0  0  0  0  0
   -2.9491    0.9361    0.4038 N   0  0  0  0  0  0  0  0  0  0  0  0
   -1.6146    1.1498    0.3331 N   0  0  0  0  0  0  0  0  0  0  0  0
   -1.0966   -0.0515    0.0195 C   0  0  0  0  0  0  0  0  0  0  0  0
    0.3471   -0.2141   -0.1618 C   0  0  0  0  0  0  0  0  0  0  0  0
    0.8547   -1.0363   -1.1729 C   0  0  0  0  0  0  0  0  0  0  0  0
    2.2363   -1.1969   -1.3437 C   0  0  0  0  0  0  0  0  0  0  0  0
    3.1321   -0.5190   -0.4947 C   0  0  0  0  0  0  0  0  0  0  0  0
    4.5117   -0.5874   -0.5499 N   0  0  0  0  0  0  0  0  0  0  0  0
    5.0238    0.1721    0.3795 C   0  0  0  0  0  0  0  0  0  0  0  0
    6.3350    0.4077    0.6872 N   0  0  0  0  0  0  0  0  0  0  0  0
    7.3731   -0.1849    0.0059 C   0  0  0  0  0  0  0  0  0  0  0  0
    7.2956   -0.9892   -0.9156 O   0  0  0  0  0  0  0  0  0  0  0  0
    8.7219    0.2365    0.5352 C   0  0  0  0  0  0  0  0  0  0  0  0
    3.9239    1.0124    1.3755 S   0  0  0  0  0  0  0  0  0  0  0  0
    2.6138    0.3097    0.5025 C   0  0  0  0  0  0  0  0  0  0  0  0
    1.2308    0.4788    0.6842 C   0  0  0  0  0  0  0  0  0  0  0  0
   -2.1188   -1.0371   -0.0737 C   0  0  0  0  0  0  0  0  0  0  0  0
   -2.2346   -2.4000   -0.3130 C   0  0  0  0  0  0  0  0  0  0  0  0
   -3.4608   -2.9750   -0.3132 N   0  0  0  0  0  0  0  0  0  0  0  0
   -4.5351   -2.2116   -0.0575 C   0  0  0  0  0  0  0  0  0  0  0  0
   -5.7608   -2.8452   -0.0842 N   0  0  0  0  0  0  0  0  0  0  0  0
   -4.5360   -0.8952    0.1782 N   0  0  0  0  0  0  0  0  0  0  0  0
   -3.3011   -0.3649    0.1694 C   0  0  0  0  0  0  0  0  0  0  0  0
   -5.2754    1.0232    1.9978 H   0  0  0  0  0  0  0  0  0  0  0  0
   -3.8530    1.6343    2.8531 H   0  0  0  0  0  0  0  0  0  0  0  0
   -5.1177    2.7545    2.3204 H   0  0  0  0  0  0  0  0  0  0  0  0
   -3.1780    2.9297    0.8346 H   0  0  0  0  0  0  0  0  0  0  0  0
   -4.2657    2.4982   -1.3651 H   0  0  0  0  0  0  0  0  0  0  0  0
   -5.5272    1.5500   -0.5666 H   0  0  0  0  0  0  0  0  0  0  0  0
   -5.3645    3.2746   -0.2128 H   0  0  0  0  0  0  0  0  0  0  0  0
    0.1900   -1.5503   -1.8635 H   0  0  0  0  0  0  0  0  0  0  0  0
    2.6294   -1.8335   -2.1311 H   0  0  0  0  0  0  0  0  0  0  0  0
    6.5099    1.0407    1.4522 H   0  0  0  0  0  0  0  0  0  0  0  0
    9.0965   -0.5334    1.2149 H   0  0  0  0  0  0  0  0  0  0  0  0
    8.6675    1.1908    1.0668 H   0  0  0  0  0  0  0  0  0  0  0  0
    9.4148    0.3561   -0.3026 H   0  0  0  0  0  0  0  0  0  0  0  0
    0.8534    1.1343    1.4652 H   0  0  0  0  0  0  0  0  0  0  0  0
   -1.3940   -3.0575   -0.4993 H   0  0  0  0  0  0  0  0  0  0  0  0
   -5.6952   -3.6850   -0.6423 H   0  0  0  0  0  0  0  0  0  0  0  0
   -6.4876   -2.1849   -0.3189 H   0  0  0  0  0  0  0  0  0  0  0  0
  1  2  1  0
  2  3  1  0
  2  4  1  0
  4  5  1  0
  5  6  2  0
  6  7  1  0
  7  8  2  0
  8  9  1  0
  9 10  2  0
 10 11  1  0
 11 12  2  0
 12 13  1  0
 13 14  1  0
 14 15  2  0
 14 16  1  0
 12 17  1  0
 17 18  1  0
 18 19  2  0
  6 20  1  0
 20 21  2  0
 21 22  1  0
 22 23  2  0
 23 24  1  0
 23 25  1  0
 25 26  2  0
 26  4  1  0
 19  7  1  0
 18 10  1  0
 26 20  1  0
  1 27  1  0
  1 28  1  0
  1 29  1  0
  2 30  1  0
  3 31  1  0
  3 32  1  0
  3 33  1  0
  8 34  1  0
  9 35  1  0
 13 36  1  0
 16 37  1  0
 16 38  1  0
 16 39  1  0
 19 40  1  0
 21 41  1  0
 24 42  1  0
 24 43  1  0
M  END
>  <Unnamed: 0>  (36) 
168

>  <ID>  (36) 
TRAIN_0168

>  <Canonical_Smiles>  (36) 
CC(C)n1nc(c2ccc3nc(NC(=O)C)sc3c2)c4cnc(N)nc14

>  <Inhibition>  (36) 
11.0

>  <TDC_conf_true_inhibitor>  (36) 
0

>  <TDC_conf_non_inhibitor>  (36) 
1

>  <split>  (36) 
1

$$$$
36
     RDKit          3D

 58 60  0  0  0  0  0  0  0  0999 V2000
    9.0160    1.8133   -1.2978 C   0  0  0  0  0  0  0  0  0  0  0  0
    8.0546    0.8827   -0.7982 O   0  0  0  0  0  0  0  0  0  0  0  0
    6.7696    1.1458   -1.1823 C   0  0  0  0  0  0  0  0  0  0  0  0
    6.4814    2.0924   -1.8994 O   0  0  0  0  0  0  0  0  0  0  0  0
    5.8425    0.2093   -0.6695 N   0  0  0  0  0  0  0  0  0  0  0  0
    6.2568   -1.1498   -0.2536 C   0  0  0  0  0  0  0  0  0  0  0  0
    5.4347   -1.6669    0.9259 C   0  0  0  0  0  0  0  0  0  0  0  0
    5.7006   -0.8618    2.2016 C   0  0  0  0  0  0  0  0  0  0  0  0
    3.9510   -1.7065    0.5698 C   0  0  0  0  0  0  0  0  0  0  0  0
    3.4792   -0.3501    0.2240 N   0  0  0  0  0  0  0  0  0  0  0  0
    2.0523   -0.1660    0.2470 C   0  0  0  0  0  0  0  0  0  0  0  0
    1.1897   -0.9542   -0.5143 C   0  0  0  0  0  0  0  0  0  0  0  0
   -0.1905   -0.7242   -0.4768 C   0  0  0  0  0  0  0  0  0  0  0  0
   -0.7176    0.3014    0.3099 C   0  0  0  0  0  0  0  0  0  0  0  0
   -2.0917    0.6021    0.3889 N   0  0  0  0  0  0  0  0  0  0  0  0
   -3.1518   -0.1557   -0.0891 C   0  0  0  0  0  0  0  0  0  0  0  0
   -3.0508   -1.2779   -0.5667 O   0  0  0  0  0  0  0  0  0  0  0  0
   -4.3375    0.5390    0.0665 N   0  0  0  0  0  0  0  0  0  0  0  0
   -5.6548    0.1065   -0.2070 C   0  0  0  0  0  0  0  0  0  0  0  0
   -5.9829   -1.2085   -0.5447 C   0  0  0  0  0  0  0  0  0  0  0  0
   -7.3148   -1.5737   -0.7877 C   0  0  0  0  0  0  0  0  0  0  0  0
   -7.6487   -2.9818   -1.1846 C   0  0  0  0  0  0  0  0  0  0  0  0
   -8.3154   -0.6008   -0.7096 C   0  0  0  0  0  0  0  0  0  0  0  0
   -8.0002    0.7162   -0.3670 C   0  0  0  0  0  0  0  0  0  0  0  0
   -6.6749    1.0769   -0.1114 C   0  0  0  0  0  0  0  0  0  0  0  0
   -6.2558    2.3413    0.2370 O   0  0  0  0  0  0  0  0  0  0  0  0
   -7.2516    3.3563    0.2942 C   0  0  0  0  0  0  0  0  0  0  0  0
    0.1593    1.1096    1.0438 C   0  0  0  0  0  0  0  0  0  0  0  0
    1.5376    0.8782    1.0112 C   0  0  0  0  0  0  0  0  0  0  0  0
    4.2333    0.3362   -1.1489 S   0  0  0  0  0  6  0  0  0  0  0  0
    3.8295    1.7206   -1.2205 O   0  0  0  0  0  0  0  0  0  0  0  0
    4.0343   -0.5776   -2.2542 O   0  0  0  0  0  0  0  0  0  0  0  0
    9.0474    1.7812   -2.3917 H   0  0  0  0  0  0  0  0  0  0  0  0
    8.7953    2.8253   -0.9430 H   0  0  0  0  0  0  0  0  0  0  0  0
    9.9984    1.5213   -0.9157 H   0  0  0  0  0  0  0  0  0  0  0  0
    7.3126   -1.1655    0.0380 H   0  0  0  0  0  0  0  0  0  0  0  0
    6.1730   -1.8275   -1.1123 H   0  0  0  0  0  0  0  0  0  0  0  0
    5.7539   -2.6982    1.1260 H   0  0  0  0  0  0  0  0  0  0  0  0
    5.4251    0.1918    2.0925 H   0  0  0  0  0  0  0  0  0  0  0  0
    6.7622   -0.9040    2.4675 H   0  0  0  0  0  0  0  0  0  0  0  0
    5.1306   -1.2720    3.0419 H   0  0  0  0  0  0  0  0  0  0  0  0
    3.3858   -2.0853    1.4312 H   0  0  0  0  0  0  0  0  0  0  0  0
    3.7733   -2.4028   -0.2589 H   0  0  0  0  0  0  0  0  0  0  0  0
    1.5734   -1.7417   -1.1561 H   0  0  0  0  0  0  0  0  0  0  0  0
   -0.8270   -1.3511   -1.0937 H   0  0  0  0  0  0  0  0  0  0  0  0
   -2.3453    1.3803    0.9773 H   0  0  0  0  0  0  0  0  0  0  0  0
   -4.2762    1.5294    0.2594 H   0  0  0  0  0  0  0  0  0  0  0  0
   -5.2150   -1.9727   -0.6205 H   0  0  0  0  0  0  0  0  0  0  0  0
   -7.5459   -3.0998   -2.2678 H   0  0  0  0  0  0  0  0  0  0  0  0
   -8.6741   -3.2376   -0.8979 H   0  0  0  0  0  0  0  0  0  0  0  0
   -6.9851   -3.6949   -0.6842 H   0  0  0  0  0  0  0  0  0  0  0  0
   -9.3513   -0.8637   -0.9133 H   0  0  0  0  0  0  0  0  0  0  0  0
   -8.8134    1.4318   -0.3108 H   0  0  0  0  0  0  0  0  0  0  0  0
   -7.7283    3.4987   -0.6819 H   0  0  0  0  0  0  0  0  0  0  0  0
   -6.7561    4.2947    0.5620 H   0  0  0  0  0  0  0  0  0  0  0  0
   -7.9916    3.1385    1.0712 H   0  0  0  0  0  0  0  0  0  0  0  0
   -0.2128    1.9313    1.6490 H   0  0  0  0  0  0  0  0  0  0  0  0
    2.2076    1.5198    1.5760 H   0  0  0  0  0  0  0  0  0  0  0  0
  1  2  1  0
  2  3  1  0
  3  4  2  0
  3  5  1  0
  5  6  1  0
  6  7  1  0
  7  8  1  0
  7  9  1  0
  9 10  1  0
 10 11  1  0
 11 12  2  0
 12 13  1  0
 13 14  2  0
 14 15  1  0
 15 16  1  0
 16 17  2  0
 16 18  1  0
 18 19  1  0
 19 20  2  0
 20 21  1  0
 21 22  1  0
 21 23  2  0
 23 24  1  0
 24 25  2  0
 25 26  1  0
 26 27  1  0
 14 28  1  0
 28 29  2  0
 10 30  1  0
 30 31  2  0
 30 32  2  0
 30  5  1  0
 29 11  1  0
 25 19  1  0
  1 33  1  0
  1 34  1  0
  1 35  1  0
  6 36  1  0
  6 37  1  0
  7 38  1  0
  8 39  1  0
  8 40  1  0
  8 41  1  0
  9 42  1  0
  9 43  1  0
 12 44  1  0
 13 45  1  0
 15 46  1  0
 18 47  1  0
 20 48  1  0
 22 49  1  0
 22 50  1  0
 22 51  1  0
 23 52  1  0
 24 53  1  0
 27 54  1  0
 27 55  1  0
 27 56  1  0
 28 57  1  0
 29 58  1  0
M  END
>  <Unnamed: 0>  (37) 
169

>  <ID>  (37) 
TRAIN_0169

>  <Canonical_Smiles>  (37) 
COC(=O)N1CC(C)CN(c2ccc(NC(=O)Nc3cc(C)ccc3OC)cc2)S1(=O)=O

>  <Inhibition>  (37) 
28.6

>  <TDC_conf_true_inhibitor>  (37) 
1

>  <TDC_conf_non_inhibitor>  (37) 
0

>  <split>  (37) 
1

$$$$
37
     RDKit          3D

 36 36  0  0  0  0  0  0  0  0999 V2000
   -4.2995    0.3888   -1.1349 C   0  0  0  0  0  0  0  0  0  0  0  0
   -3.9353    0.4655    0.3435 C   0  0  0  0  0  0  0  0  0  0  0  0
   -4.5644    1.6939    0.9897 C   0  0  0  0  0  0  0  0  0  0  0  0
   -2.5089    0.5991    0.4821 O   0  0  0  0  0  0  0  0  0  0  0  0
   -1.7861   -0.5536    0.4552 C   0  0  0  0  0  0  0  0  0  0  0  0
   -2.2850   -1.6644    0.3166 O   0  0  0  0  0  0  0  0  0  0  0  0
   -0.4211   -0.3294    0.6010 N   0  0  0  0  0  0  0  0  0  0  0  0
    0.4735   -1.4515    0.3460 C   0  0  0  0  0  0  0  0  0  0  0  0
    1.7887   -1.3245    1.1064 C   0  0  0  0  0  0  0  0  0  0  0  0
    2.4437    0.0356    0.8772 C   0  0  0  0  0  0  0  0  0  0  0  0
    1.4642    1.1583    1.2108 C   0  0  0  0  0  0  0  0  0  0  0  0
    0.1477    1.0078    0.4549 C   0  0  0  0  0  0  0  0  0  0  0  0
    2.8293    0.1558   -0.4902 O   0  0  0  0  0  0  0  0  0  0  0  0
    4.4162    0.0647   -0.8469 S   0  0  0  0  0  6  0  0  0  0  0  0
    5.0615    1.2639   -0.3578 O   0  0  0  0  0  0  0  0  0  0  0  0
    4.8876   -1.2594   -0.5029 O   0  0  0  0  0  0  0  0  0  0  0  0
    4.2559    0.1770   -2.6118 C   0  0  0  0  0  0  0  0  0  0  0  0
   -5.3838    0.3377   -1.2735 H   0  0  0  0  0  0  0  0  0  0  0  0
   -3.8511   -0.4936   -1.6028 H   0  0  0  0  0  0  0  0  0  0  0  0
   -3.9161    1.2598   -1.6780 H   0  0  0  0  0  0  0  0  0  0  0  0
   -4.2928   -0.4255    0.8738 H   0  0  0  0  0  0  0  0  0  0  0  0
   -5.6561    1.6643    0.9226 H   0  0  0  0  0  0  0  0  0  0  0  0
   -4.2073    2.6150    0.5156 H   0  0  0  0  0  0  0  0  0  0  0  0
   -4.2813    1.7547    2.0462 H   0  0  0  0  0  0  0  0  0  0  0  0
    0.6524   -1.4878   -0.7357 H   0  0  0  0  0  0  0  0  0  0  0  0
   -0.0124   -2.3939    0.6223 H   0  0  0  0  0  0  0  0  0  0  0  0
    1.5988   -1.4551    2.1790 H   0  0  0  0  0  0  0  0  0  0  0  0
    2.4599   -2.1302    0.7887 H   0  0  0  0  0  0  0  0  0  0  0  0
    3.3208    0.1305    1.5293 H   0  0  0  0  0  0  0  0  0  0  0  0
    1.2623    1.1496    2.2892 H   0  0  0  0  0  0  0  0  0  0  0  0
    1.9056    2.1306    0.9634 H   0  0  0  0  0  0  0  0  0  0  0  0
   -0.5528    1.7683    0.8144 H   0  0  0  0  0  0  0  0  0  0  0  0
    0.2921    1.1845   -0.6179 H   0  0  0  0  0  0  0  0  0  0  0  0
    5.2565    0.1322   -3.0466 H   0  0  0  0  0  0  0  0  0  0  0  0
    3.7809    1.1270   -2.8634 H   0  0  0  0  0  0  0  0  0  0  0  0
    3.6563   -0.6637   -2.9658 H   0  0  0  0  0  0  0  0  0  0  0  0
  1  2  1  0
  2  3  1  0
  2  4  1  0
  4  5  1  0
  5  6  2  0
  5  7  1  0
  7  8  1  0
  8  9  1  0
  9 10  1  0
 10 11  1  0
 11 12  1  0
 10 13  1  0
 13 14  1  0
 14 15  2  0
 14 16  2  0
 14 17  1  0
 12  7  1  0
  1 18  1  0
  1 19  1  0
  1 20  1  0
  2 21  1  0
  3 22  1  0
  3 23  1  0
  3 24  1  0
  8 25  1  0
  8 26  1  0
  9 27  1  0
  9 28  1  0
 10 29  1  0
 11 30  1  0
 11 31  1  0
 12 32  1  0
 12 33  1  0
 17 34  1  0
 17 35  1  0
 17 36  1  0
M  END
>  <Unnamed: 0>  (38) 
177

>  <ID>  (38) 
TRAIN_0177

>  <Canonical_Smiles>  (38) 
CC(C)OC(=O)N1CCC(CC1)OS(=O)(=O)C

>  <Inhibition>  (38) 
0.0

>  <TDC_conf_true_inhibitor>  (38) 
0

>  <TDC_conf_non_inhibitor>  (38) 
1

>  <split>  (38) 
1

$$$$
38
     RDKit          3D

 46 46  0  0  0  0  0  0  0  0999 V2000
    2.6253    1.2365   -1.2159 C   0  0  0  0  0  0  0  0  0  0  0  0
    2.7668    0.4986    0.0557 N   0  0  0  0  0  0  0  0  0  0  0  0
    4.1216    0.6007    0.6669 C   0  0  0  0  0  0  0  0  0  0  0  0
    5.1601   -0.2837   -0.0056 C   0  0  0  0  0  0  0  0  0  0  0  0
    6.5199   -0.0194    0.5897 C   0  0  0  0  0  0  0  0  0  0  0  0
    6.5365   -0.2617    1.9165 F   0  0  0  0  0  0  0  0  0  0  0  0
    7.4571   -0.8029    0.0146 F   0  0  0  0  0  0  0  0  0  0  0  0
    6.8908    1.2659    0.3993 F   0  0  0  0  0  0  0  0  0  0  0  0
    2.0334   -1.0225    0.0998 S   0  0  0  0  0  6  0  0  0  0  0  0
    2.4311   -1.7315   -1.0939 O   0  0  0  0  0  0  0  0  0  0  0  0
    2.2338   -1.5910    1.4119 O   0  0  0  0  0  0  0  0  0  0  0  0
    0.4039   -0.5803   -0.0394 N   0  0  0  0  0  0  0  0  0  0  0  0
   -0.1216    0.1904    1.1175 C   0  0  0  0  0  0  0  0  0  0  0  0
   -1.4917    0.7674    0.7611 C   0  0  0  0  0  0  0  0  0  0  0  0
   -2.4954   -0.3411    0.3741 C   0  0  0  0  0  0  0  0  0  0  0  0
   -1.8702   -1.1996   -0.7476 C   0  0  0  0  0  0  0  0  0  0  0  0
   -0.4870   -1.7242   -0.3612 C   0  0  0  0  0  0  0  0  0  0  0  0
   -3.9365    0.1941    0.0381 C   0  0  0  0  0  0  0  0  0  0  0  0
   -3.9546    1.1363   -1.1802 C   0  0  0  0  0  0  0  0  0  0  0  0
   -4.5161    0.9612    1.2471 C   0  0  0  0  0  0  0  0  0  0  0  0
   -4.8899   -0.9858   -0.2529 C   0  0  0  0  0  0  0  0  0  0  0  0
    3.1957    0.7607   -2.0182 H   0  0  0  0  0  0  0  0  0  0  0  0
    2.9875    2.2624   -1.0938 H   0  0  0  0  0  0  0  0  0  0  0  0
    1.5753    1.3062   -1.5131 H   0  0  0  0  0  0  0  0  0  0  0  0
    4.4349    1.6517    0.6292 H   0  0  0  0  0  0  0  0  0  0  0  0
    4.0393    0.3570    1.7332 H   0  0  0  0  0  0  0  0  0  0  0  0
    5.1949   -0.0931   -1.0833 H   0  0  0  0  0  0  0  0  0  0  0  0
    4.9139   -1.3424    0.1261 H   0  0  0  0  0  0  0  0  0  0  0  0
   -0.2007   -0.4528    2.0018 H   0  0  0  0  0  0  0  0  0  0  0  0
    0.5472    1.0227    1.3592 H   0  0  0  0  0  0  0  0  0  0  0  0
   -1.3710    1.4748   -0.0676 H   0  0  0  0  0  0  0  0  0  0  0  0
   -1.8542    1.3337    1.6247 H   0  0  0  0  0  0  0  0  0  0  0  0
   -2.5983   -0.9957    1.2528 H   0  0  0  0  0  0  0  0  0  0  0  0
   -2.5057   -2.0610   -0.9758 H   0  0  0  0  0  0  0  0  0  0  0  0
   -1.7771   -0.6091   -1.6666 H   0  0  0  0  0  0  0  0  0  0  0  0
   -0.5599   -2.4029    0.4968 H   0  0  0  0  0  0  0  0  0  0  0  0
   -0.0879   -2.2874   -1.2115 H   0  0  0  0  0  0  0  0  0  0  0  0
   -3.6013    0.6365   -2.0873 H   0  0  0  0  0  0  0  0  0  0  0  0
   -4.9727    1.4889   -1.3847 H   0  0  0  0  0  0  0  0  0  0  0  0
   -3.3355    2.0240   -1.0182 H   0  0  0  0  0  0  0  0  0  0  0  0
   -4.4709    0.3545    2.1583 H   0  0  0  0  0  0  0  0  0  0  0  0
   -3.9792    1.8968    1.4332 H   0  0  0  0  0  0  0  0  0  0  0  0
   -5.5663    1.2285    1.0800 H   0  0  0  0  0  0  0  0  0  0  0  0
   -4.8690   -1.7201    0.5600 H   0  0  0  0  0  0  0  0  0  0  0  0
   -5.9252   -0.6412   -0.3601 H   0  0  0  0  0  0  0  0  0  0  0  0
   -4.6314   -1.5001   -1.1840 H   0  0  0  0  0  0  0  0  0  0  0  0
  1  2  1  0
  2  3  1  0
  3  4  1  0
  4  5  1  0
  5  6  1  0
  5  7  1  0
  5  8  1  0
  2  9  1  0
  9 10  2  0
  9 11  2  0
  9 12  1  0
 12 13  1  0
 13 14  1  0
 14 15  1  0
 15 16  1  0
 16 17  1  0
 15 18  1  0
 18 19  1  0
 18 20  1  0
 18 21  1  0
 17 12  1  0
  1 22  1  0
  1 23  1  0
  1 24  1  0
  3 25  1  0
  3 26  1  0
  4 27  1  0
  4 28  1  0
 13 29  1  0
 13 30  1  0
 14 31  1  0
 14 32  1  0
 15 33  1  0
 16 34  1  0
 16 35  1  0
 17 36  1  0
 17 37  1  0
 19 38  1  0
 19 39  1  0
 19 40  1  0
 20 41  1  0
 20 42  1  0
 20 43  1  0
 21 44  1  0
 21 45  1  0
 21 46  1  0
M  END
>  <Unnamed: 0>  (39) 
915

>  <ID>  (39) 
TRAIN_0915

>  <Canonical_Smiles>  (39) 
CN(CCC(F)(F)F)S(=O)(=O)N1CCC(CC1)C(C)(C)C

>  <Inhibition>  (39) 
5.959544

>  <TDC_conf_true_inhibitor>  (39) 
0

>  <TDC_conf_non_inhibitor>  (39) 
1

>  <split>  (39) 
1

$$$$
39
     RDKit          3D

 44 45  0  0  0  0  0  0  0  0999 V2000
   -5.3634   -0.0507   -2.3859 C   0  0  0  0  0  0  0  0  0  0  0  0
   -5.8965    0.1042   -1.0225 N   0  0  0  0  0  0  0  0  0  0  0  0
   -6.9074   -0.9028   -0.6636 C   0  0  0  0  0  0  0  0  0  0  0  0
   -4.8217    0.5998    0.1880 S   0  0  0  0  0  6  0  0  0  0  0  0
   -4.0272    1.6883   -0.3412 O   0  0  0  0  0  0  0  0  0  0  0  0
   -5.5730    0.7509    1.4174 O   0  0  0  0  0  0  0  0  0  0  0  0
   -3.7525   -0.8221    0.3747 C   0  0  0  0  0  0  0  0  0  0  0  0
   -2.6698   -0.5464    1.4170 C   0  0  0  0  0  0  0  0  0  0  0  0
   -1.3439   -0.4605    0.7902 N   0  0  0  0  0  0  0  0  0  0  0  0
   -0.2978   -0.2802    1.8000 C   0  0  0  0  0  0  0  0  0  0  0  0
    1.0511   -0.0959    1.1489 C   0  0  0  0  0  0  0  0  0  0  0  0
    1.6780   -1.1663    0.4988 C   0  0  0  0  0  0  0  0  0  0  0  0
    2.9291   -0.9995   -0.1059 C   0  0  0  0  0  0  0  0  0  0  0  0
    3.5860    0.2396   -0.0772 C   0  0  0  0  0  0  0  0  0  0  0  0
    2.9471    1.3091    0.5701 C   0  0  0  0  0  0  0  0  0  0  0  0
    1.6946    1.1466    1.1727 C   0  0  0  0  0  0  0  0  0  0  0  0
    4.9031    0.4160   -0.7081 C   0  0  0  0  0  0  0  0  0  0  0  0
    6.0025    0.8804    0.0337 C   0  0  0  0  0  0  0  0  0  0  0  0
    7.2509    1.0588   -0.5667 C   0  0  0  0  0  0  0  0  0  0  0  0
    7.4209    0.7744   -1.9193 C   0  0  0  0  0  0  0  0  0  0  0  0
    6.3447    0.3107   -2.6719 C   0  0  0  0  0  0  0  0  0  0  0  0
    5.0963    0.1321   -2.0700 C   0  0  0  0  0  0  0  0  0  0  0  0
   -4.6537    0.7445   -2.6317 H   0  0  0  0  0  0  0  0  0  0  0  0
   -6.1808    0.0193   -3.1105 H   0  0  0  0  0  0  0  0  0  0  0  0
   -4.8744   -1.0217   -2.5047 H   0  0  0  0  0  0  0  0  0  0  0  0
   -7.6714   -0.9562   -1.4460 H   0  0  0  0  0  0  0  0  0  0  0  0
   -6.4538   -1.8928   -0.5593 H   0  0  0  0  0  0  0  0  0  0  0  0
   -7.4211   -0.6310    0.2611 H   0  0  0  0  0  0  0  0  0  0  0  0
   -4.3817   -1.6555    0.7042 H   0  0  0  0  0  0  0  0  0  0  0  0
   -3.3304   -1.0619   -0.6057 H   0  0  0  0  0  0  0  0  0  0  0  0
   -2.6616   -1.3860    2.1216 H   0  0  0  0  0  0  0  0  0  0  0  0
   -2.8743    0.3617    1.9939 H   0  0  0  0  0  0  0  0  0  0  0  0
   -1.3179    0.3516    0.1673 H   0  0  0  0  0  0  0  0  0  0  0  0
   -0.2480   -1.1549    2.4609 H   0  0  0  0  0  0  0  0  0  0  0  0
   -0.5211    0.5874    2.4317 H   0  0  0  0  0  0  0  0  0  0  0  0
    1.1893   -2.1378    0.4583 H   0  0  0  0  0  0  0  0  0  0  0  0
    3.3951   -1.8530   -0.5936 H   0  0  0  0  0  0  0  0  0  0  0  0
    3.4198    2.2885    0.5970 H   0  0  0  0  0  0  0  0  0  0  0  0
    1.2279    1.9996    1.6598 H   0  0  0  0  0  0  0  0  0  0  0  0
    5.8917    1.0995    1.0938 H   0  0  0  0  0  0  0  0  0  0  0  0
    8.0886    1.4203    0.0241 H   0  0  0  0  0  0  0  0  0  0  0  0
    8.3900    0.9172   -2.3877 H   0  0  0  0  0  0  0  0  0  0  0  0
    6.4723    0.0936   -3.7286 H   0  0  0  0  0  0  0  0  0  0  0  0
    4.2643   -0.2189   -2.6764 H   0  0  0  0  0  0  0  0  0  0  0  0
  1  2  1  0
  2  3  1  0
  2  4  1  0
  4  5  2  0
  4  6  2  0
  4  7  1  0
  7  8  1  0
  8  9  1  0
  9 10  1  0
 10 11  1  0
 11 12  2  0
 12 13  1  0
 13 14  2  0
 14 15  1  0
 15 16  2  0
 14 17  1  0
 17 18  2  0
 18 19  1  0
 19 20  2  0
 20 21  1  0
 21 22  2  0
 16 11  1  0
 22 17  1  0
  1 23  1  0
  1 24  1  0
  1 25  1  0
  3 26  1  0
  3 27  1  0
  3 28  1  0
  7 29  1  0
  7 30  1  0
  8 31  1  0
  8 32  1  0
  9 33  1  0
 10 34  1  0
 10 35  1  0
 12 36  1  0
 13 37  1  0
 15 38  1  0
 16 39  1  0
 18 40  1  0
 19 41  1  0
 20 42  1  0
 21 43  1  0
 22 44  1  0
M  END
>  <Unnamed: 0>  (40) 
186

>  <ID>  (40) 
TRAIN_0186

>  <Canonical_Smiles>  (40) 
CN(C)S(=O)(=O)CCNCc1ccc(cc1)c2ccccc2

>  <Inhibition>  (40) 
2.86

>  <TDC_conf_true_inhibitor>  (40) 
0

>  <TDC_conf_non_inhibitor>  (40) 
1

>  <split>  (40) 
1

$$$$
40
     RDKit          3D

 48 49  0  0  0  0  0  0  0  0999 V2000
   -0.9519    4.3372    1.8744 C   0  0  0  0  0  0  0  0  0  0  0  0
   -0.7343    2.9290    1.9589 O   0  0  0  0  0  0  0  0  0  0  0  0
   -1.0155    2.2528    0.8060 C   0  0  0  0  0  0  0  0  0  0  0  0
   -1.3956    2.7770   -0.2369 O   0  0  0  0  0  0  0  0  0  0  0  0
   -0.7384    0.7478    0.9826 C   0  0  0  0  0  0  0  0  0  0  0  0
   -1.5620   -0.0176    0.0612 N   0  0  0  0  0  0  0  0  0  0  0  0
   -2.8699   -0.2614    0.3392 C   0  0  0  0  0  0  0  0  0  0  0  0
   -3.3997   -0.0528    1.4182 O   0  0  0  0  0  0  0  0  0  0  0  0
   -3.4685   -0.7422   -0.7719 O   0  0  0  0  0  0  0  0  0  0  0  0
   -4.8819   -1.0693   -0.7701 C   0  0  0  0  0  0  0  0  0  0  0  0
   -5.1915   -2.1978    0.2197 C   0  0  0  0  0  0  0  0  0  0  0  0
   -5.7400    0.1736   -0.5090 C   0  0  0  0  0  0  0  0  0  0  0  0
   -5.1677   -1.5726   -2.1932 C   0  0  0  0  0  0  0  0  0  0  0  0
    0.7256    0.4090    0.7673 C   0  0  0  0  0  0  0  0  0  0  0  0
    1.4257    0.8511   -0.3652 C   0  0  0  0  0  0  0  0  0  0  0  0
    2.7707    0.5129   -0.5493 C   0  0  0  0  0  0  0  0  0  0  0  0
    3.4540   -0.2824    0.3831 C   0  0  0  0  0  0  0  0  0  0  0  0
    2.7444   -0.7313    1.5072 C   0  0  0  0  0  0  0  0  0  0  0  0
    1.3998   -0.3946    1.6968 C   0  0  0  0  0  0  0  0  0  0  0  0
    4.8690   -0.6376    0.1860 C   0  0  0  0  0  0  0  0  0  0  0  0
    5.2896   -1.9780    0.2116 C   0  0  0  0  0  0  0  0  0  0  0  0
    6.6327   -2.3160    0.0239 C   0  0  0  0  0  0  0  0  0  0  0  0
    7.5792   -1.3179   -0.1919 C   0  0  0  0  0  0  0  0  0  0  0  0
    7.1841    0.0170   -0.2207 C   0  0  0  0  0  0  0  0  0  0  0  0
    5.8405    0.3533   -0.0339 C   0  0  0  0  0  0  0  0  0  0  0  0
   -0.2930    4.7817    1.1221 H   0  0  0  0  0  0  0  0  0  0  0  0
   -0.7123    4.7760    2.8468 H   0  0  0  0  0  0  0  0  0  0  0  0
   -2.0011    4.5507    1.6473 H   0  0  0  0  0  0  0  0  0  0  0  0
   -1.0439    0.4842    2.0035 H   0  0  0  0  0  0  0  0  0  0  0  0
   -1.3329   -0.0107   -0.9221 H   0  0  0  0  0  0  0  0  0  0  0  0
   -5.0709   -1.8755    1.2583 H   0  0  0  0  0  0  0  0  0  0  0  0
   -4.5094   -3.0426    0.0718 H   0  0  0  0  0  0  0  0  0  0  0  0
   -6.2202   -2.5565    0.1058 H   0  0  0  0  0  0  0  0  0  0  0  0
   -5.4426    0.9969   -1.1682 H   0  0  0  0  0  0  0  0  0  0  0  0
   -5.6304    0.5382    0.5168 H   0  0  0  0  0  0  0  0  0  0  0  0
   -6.8032   -0.0352   -0.6702 H   0  0  0  0  0  0  0  0  0  0  0  0
   -4.9228   -0.8035   -2.9351 H   0  0  0  0  0  0  0  0  0  0  0  0
   -4.5435   -2.4417   -2.4319 H   0  0  0  0  0  0  0  0  0  0  0  0
   -6.2178   -1.8552   -2.3220 H   0  0  0  0  0  0  0  0  0  0  0  0
    0.9344    1.4624   -1.1208 H   0  0  0  0  0  0  0  0  0  0  0  0
    3.2832    0.8663   -1.4425 H   0  0  0  0  0  0  0  0  0  0  0  0
    3.2419   -1.3452    2.2559 H   0  0  0  0  0  0  0  0  0  0  0  0
    0.8850   -0.7679    2.5803 H   0  0  0  0  0  0  0  0  0  0  0  0
    4.5648   -2.7746    0.3673 H   0  0  0  0  0  0  0  0  0  0  0  0
    6.9368   -3.3593    0.0440 H   0  0  0  0  0  0  0  0  0  0  0  0
    8.6238   -1.5801   -0.3375 H   0  0  0  0  0  0  0  0  0  0  0  0
    7.9206    0.7991   -0.3857 H   0  0  0  0  0  0  0  0  0  0  0  0
    5.5553    1.4033   -0.0488 H   0  0  0  0  0  0  0  0  0  0  0  0
  1  2  1  0
  2  3  1  0
  3  4  2  0
  3  5  1  0
  5  6  1  0
  6  7  1  0
  7  8  2  0
  7  9  1  0
  9 10  1  0
 10 11  1  0
 10 12  1  0
 10 13  1  0
  5 14  1  0
 14 15  2  0
 15 16  1  0
 16 17  2  0
 17 18  1  0
 18 19  2  0
 17 20  1  0
 20 21  2  0
 21 22  1  0
 22 23  2  0
 23 24  1  0
 24 25  2  0
 19 14  1  0
 25 20  1  0
  1 26  1  0
  1 27  1  0
  1 28  1  0
  5 29  1  0
  6 30  1  0
 11 31  1  0
 11 32  1  0
 11 33  1  0
 12 34  1  0
 12 35  1  0
 12 36  1  0
 13 37  1  0
 13 38  1  0
 13 39  1  0
 15 40  1  0
 16 41  1  0
 18 42  1  0
 19 43  1  0
 21 44  1  0
 22 45  1  0
 23 46  1  0
 24 47  1  0
 25 48  1  0
M  END
>  <Unnamed: 0>  (41) 
262

>  <ID>  (41) 
TRAIN_0262

>  <Canonical_Smiles>  (41) 
COC(=O)C(NC(=O)OC(C)(C)C)c1ccc(cc1)c2ccccc2

>  <Inhibition>  (41) 
0.0

>  <TDC_conf_true_inhibitor>  (41) 
0

>  <TDC_conf_non_inhibitor>  (41) 
1

>  <split>  (41) 
1

$$$$
41
     RDKit          3D

 28 29  0  0  0  0  0  0  0  0999 V2000
   -3.3023   -1.7723    0.5062 C   0  0  0  0  0  0  0  0  0  0  0  0
   -2.3382   -0.6909    0.1048 C   0  0  0  0  0  0  0  0  0  0  0  0
   -2.8115    0.4954   -0.4707 C   0  0  0  0  0  0  0  0  0  0  0  0
   -1.9074    1.4952   -0.8495 C   0  0  0  0  0  0  0  0  0  0  0  0
   -0.5293    1.3258   -0.6564 C   0  0  0  0  0  0  0  0  0  0  0  0
   -0.0319    0.1450   -0.0791 C   0  0  0  0  0  0  0  0  0  0  0  0
   -0.9549   -0.8559    0.2884 C   0  0  0  0  0  0  0  0  0  0  0  0
   -0.5446   -2.0460    0.8342 O   0  0  0  0  0  0  0  0  0  0  0  0
    1.4159    0.0035    0.1293 C   0  0  0  0  0  0  0  0  0  0  0  0
    2.2815   -0.1998   -0.9573 C   0  0  0  0  0  0  0  0  0  0  0  0
    3.6583   -0.3380   -0.7577 C   0  0  0  0  0  0  0  0  0  0  0  0
    4.1812   -0.2719    0.5314 C   0  0  0  0  0  0  0  0  0  0  0  0
    5.8746   -0.4434    0.7775 Cl  0  0  0  0  0  0  0  0  0  0  0  0
    3.3398   -0.0688    1.6223 C   0  0  0  0  0  0  0  0  0  0  0  0
    1.9635    0.0692    1.4213 C   0  0  0  0  0  0  0  0  0  0  0  0
   -2.4078    2.7366   -1.4542 N   0  0  0  0  0  4  0  0  0  0  0  0
   -1.5728    3.5748   -1.8229 O   0  0  0  0  0  0  0  0  0  0  0  0
   -3.6346    2.8727   -1.5622 O   0  0  0  0  0  1  0  0  0  0  0  0
   -4.3402   -1.4708    0.3296 H   0  0  0  0  0  0  0  0  0  0  0  0
   -3.1152   -2.6808   -0.0753 H   0  0  0  0  0  0  0  0  0  0  0  0
   -3.2004   -1.9953    1.5732 H   0  0  0  0  0  0  0  0  0  0  0  0
   -3.8817    0.6295   -0.6208 H   0  0  0  0  0  0  0  0  0  0  0  0
    0.1683    2.1123   -0.9432 H   0  0  0  0  0  0  0  0  0  0  0  0
    0.4257   -2.0982    0.8014 H   0  0  0  0  0  0  0  0  0  0  0  0
    1.8869   -0.2553   -1.9707 H   0  0  0  0  0  0  0  0  0  0  0  0
    4.3138   -0.4950   -1.6106 H   0  0  0  0  0  0  0  0  0  0  0  0
    3.7465   -0.0127    2.6288 H   0  0  0  0  0  0  0  0  0  0  0  0
    1.3171    0.2350    2.2824 H   0  0  0  0  0  0  0  0  0  0  0  0
  1  2  1  0
  2  3  2  0
  3  4  1  0
  4  5  2  0
  5  6  1  0
  6  7  2  0
  7  8  1  0
  6  9  1  0
  9 10  2  0
 10 11  1  0
 11 12  2  0
 12 13  1  0
 12 14  1  0
 14 15  2  0
  4 16  1  0
 16 17  2  0
 16 18  1  0
  7  2  1  0
 15  9  1  0
  1 19  1  0
  1 20  1  0
  1 21  1  0
  3 22  1  0
  5 23  1  0
  8 24  1  0
 10 25  1  0
 11 26  1  0
 14 27  1  0
 15 28  1  0
M  CHG  2  16   1  18  -1
M  END
>  <Unnamed: 0>  (42) 
459

>  <ID>  (42) 
TRAIN_0459

>  <Canonical_Smiles>  (42) 
Cc1cc(cc(c1O)c2ccc(Cl)cc2)[N+](=O)[O-]

>  <Inhibition>  (42) 
44.0

>  <TDC_conf_true_inhibitor>  (42) 
1

>  <TDC_conf_non_inhibitor>  (42) 
0

>  <split>  (42) 
1

$$$$
42
     RDKit          3D

 71 73  0  0  0  0  0  0  0  0999 V2000
    0.6828    0.0000    0.0000 Cl  0  0  0  0  0  0  0  0  0  0  0  0
    2.8857    2.1657    0.9257 C   0  0  0  0  0  0  0  0  0  0  0  0
    2.4203    0.7251    1.1246 C   0  0  1  0  0  0  0  0  0  0  0  0
    2.8823    0.2286    2.4121 N   0  0  0  0  0  0  0  0  0  0  0  0
    4.0593   -0.5796    2.4845 C   0  0  0  0  0  0  0  0  0  0  0  0
    4.6312   -0.7952    1.3730 O   0  0  0  0  0  0  0  0  0  0  0  0
    4.5698   -1.1245    3.7591 C   0  0  2  0  0  0  0  0  0  0  0  0
    4.8048   -0.1032    4.8168 C   0  0  0  0  0  0  0  0  0  0  0  0
    5.9998   -0.7049    5.5657 C   0  0  0  0  0  0  0  0  0  0  0  0
    6.8039   -1.2303    4.3701 C   0  0  0  0  0  0  0  0  0  0  0  0
    5.7867   -1.8876    3.5644 N   0  0  0  0  0  0  0  0  0  0  0  0
    0.9671    0.6764    1.0530 C   0  0  0  0  0  0  0  0  0  0  0  0
    0.2550    0.4016    2.0258 O   0  0  0  0  0  0  0  0  0  0  0  0
    0.3135    0.9485   -0.1800 N   0  0  0  0  0  0  0  0  0  0  0  0
   -1.0970    0.9544   -0.4002 C   0  0  1  0  0  0  0  0  0  0  0  0
   -1.5726    1.9123   -1.4192 C   0  0  0  0  0  0  0  0  0  0  0  0
   -1.2822    3.3181   -1.1389 C   0  0  0  0  0  0  0  0  0  0  0  0
   -0.0757    3.8946   -1.5598 C   0  0  0  0  0  0  0  0  0  0  0  0
    0.1890    5.2230   -1.2960 C   0  0  0  0  0  0  0  0  0  0  0  0
   -0.7397    5.9792   -0.6172 C   0  0  0  0  0  0  0  0  0  0  0  0
   -0.5365    7.3245   -0.3188 O   0  0  0  0  0  0  0  0  0  0  0  0
   -1.9611    5.4419   -0.1771 C   0  0  0  0  0  0  0  0  0  0  0  0
   -2.1852    4.1108   -0.4612 C   0  0  0  0  0  0  0  0  0  0  0  0
   -1.4976   -0.4600   -0.7358 C   0  0  0  0  0  0  0  0  0  0  0  0
   -0.6263   -1.3610   -0.7151 O   0  0  0  0  0  0  0  0  0  0  0  0
   -2.8266   -0.8069   -1.0738 N   0  0  0  0  0  0  0  0  0  0  0  0
   -3.1247   -2.1824   -1.3599 C   0  0  1  0  0  0  0  0  0  0  0  0
   -4.3989   -2.6580   -0.7573 C   0  0  0  0  0  0  0  0  0  0  0  0
   -4.4939   -4.1441   -0.8878 C   0  0  0  0  0  0  0  0  0  0  0  0
   -4.1525   -4.6855   -2.2280 C   0  0  0  0  0  0  0  0  0  0  0  0
   -3.7312   -3.6460   -3.2215 C   0  0  0  0  0  0  0  0  0  0  0  0
   -3.8539   -3.9604   -4.5490 C   0  0  0  0  0  0  0  0  0  0  0  0
   -3.4717   -3.0434   -5.4999 C   0  0  0  0  0  0  0  0  0  0  0  0
   -2.9644   -1.8090   -5.0983 C   0  0  0  0  0  0  0  0  0  0  0  0
   -2.8459   -1.5042   -3.7605 C   0  0  0  0  0  0  0  0  0  0  0  0
   -3.2331   -2.4340   -2.8388 C   0  0  0  0  0  0  0  0  0  0  0  0
   -0.6828    0.0000    0.0000 H   0  0  0  0  0  0  0  0  0  0  0  0
    3.5718    2.4443    1.7573 H   0  0  0  0  0  0  0  0  0  0  0  0
    1.9887    2.8084    1.0006 H   0  0  0  0  0  0  0  0  0  0  0  0
    3.3273    2.3122   -0.0590 H   0  0  0  0  0  0  0  0  0  0  0  0
    2.9383    0.1445    0.3407 H   0  0  0  0  0  0  0  0  0  0  0  0
    2.3484    0.4617    3.2541 H   0  0  0  0  0  0  0  0  0  0  0  0
    3.7960   -1.8614    4.1228 H   0  0  0  0  0  0  0  0  0  0  0  0
    3.9296   -0.0200    5.5070 H   0  0  0  0  0  0  0  0  0  0  0  0
    5.1244    0.8773    4.4276 H   0  0  0  0  0  0  0  0  0  0  0  0
    5.6873   -1.6004    6.1545 H   0  0  0  0  0  0  0  0  0  0  0  0
    6.5415    0.0444    6.1512 H   0  0  0  0  0  0  0  0  0  0  0  0
    7.2859   -0.3743    3.8620 H   0  0  0  0  0  0  0  0  0  0  0  0
    7.5702   -1.9318    4.7384 H   0  0  0  0  0  0  0  0  0  0  0  0
    5.6871   -2.8876    3.8377 H   0  0  0  0  0  0  0  0  0  0  0  0
    0.9540    1.1611   -1.0015 H   0  0  0  0  0  0  0  0  0  0  0  0
   -1.6729    1.1269    0.5623 H   0  0  0  0  0  0  0  0  0  0  0  0
   -2.6969    1.8190   -1.4827 H   0  0  0  0  0  0  0  0  0  0  0  0
   -1.2553    1.6164   -2.4744 H   0  0  0  0  0  0  0  0  0  0  0  0
    0.6550    3.2972   -2.0957 H   0  0  0  0  0  0  0  0  0  0  0  0
    1.1004    5.7238   -1.5947 H   0  0  0  0  0  0  0  0  0  0  0  0
   -0.8268    8.0634   -0.9492 H   0  0  0  0  0  0  0  0  0  0  0  0
   -2.6985    6.0273    0.3535 H   0  0  0  0  0  0  0  0  0  0  0  0
   -3.1202    3.6153   -0.1553 H   0  0  0  0  0  0  0  0  0  0  0  0
   -3.5749   -0.0581   -1.1150 H   0  0  0  0  0  0  0  0  0  0  0  0
   -2.2835   -2.8334   -1.0073 H   0  0  0  0  0  0  0  0  0  0  0  0
   -4.5190   -2.4088    0.3221 H   0  0  0  0  0  0  0  0  0  0  0  0
   -5.2762   -2.2097   -1.3134 H   0  0  0  0  0  0  0  0  0  0  0  0
   -5.4930   -4.5303   -0.5684 H   0  0  0  0  0  0  0  0  0  0  0  0
   -3.7746   -4.5918   -0.1413 H   0  0  0  0  0  0  0  0  0  0  0  0
   -5.0085   -5.2287   -2.6851 H   0  0  0  0  0  0  0  0  0  0  0  0
   -3.3149   -5.4351   -2.1904 H   0  0  0  0  0  0  0  0  0  0  0  0
   -4.2504   -4.9370   -4.8808 H   0  0  0  0  0  0  0  0  0  0  0  0
   -3.5458   -3.2298   -6.5674 H   0  0  0  0  0  0  0  0  0  0  0  0
   -2.6511   -1.0705   -5.8478 H   0  0  0  0  0  0  0  0  0  0  0  0
   -2.4411   -0.5193   -3.4431 H   0  0  0  0  0  0  0  0  0  0  0  0
  2  3  1  0
  3  4  1  0
  4  5  1  0
  5  6  2  0
  5  7  1  0
  7  8  1  0
  8  9  1  0
  9 10  1  0
 10 11  1  0
  3 12  1  0
 12 13  2  0
 12 14  1  0
 14 15  1  0
 15 16  1  0
 16 17  1  0
 17 18  2  0
 18 19  1  0
 19 20  2  0
 20 21  1  0
 20 22  1  0
 22 23  2  0
 15 24  1  0
 24 25  2  0
 24 26  1  0
 26 27  1  0
 27 28  1  0
 28 29  1  0
 29 30  1  0
 30 31  1  0
 31 32  2  0
 32 33  1  0
 33 34  2  0
 34 35  1  0
 35 36  2  0
 11  7  1  0
 23 17  1  0
 36 27  1  0
 36 31  1  0
  1 37  1  0
  2 38  1  0
  2 39  1  0
  2 40  1  0
  3 41  1  6
  4 42  1  0
  7 43  1  1
  8 44  1  0
  8 45  1  0
  9 46  1  0
  9 47  1  0
 10 48  1  0
 10 49  1  0
 11 50  1  0
 14 51  1  0
 15 52  1  1
 16 53  1  0
 16 54  1  0
 18 55  1  0
 19 56  1  0
 21 57  1  0
 22 58  1  0
 23 59  1  0
 26 60  1  0
 27 61  1  1
 28 62  1  0
 28 63  1  0
 29 64  1  0
 29 65  1  0
 30 66  1  0
 30 67  1  0
 32 68  1  0
 33 69  1  0
 34 70  1  0
 35 71  1  0
M  END
>  <Unnamed: 0>  (43) 
189

>  <ID>  (43) 
TRAIN_0189

>  <Canonical_Smiles>  (43) 
Cl.C[C@@H](NC(=O)[C@@H]1CCCN1)C(=O)N[C@@H](Cc2ccc(O)cc2)C(=O)N[C@H]3CCCc4ccccc34

>  <Inhibition>  (43) 
60.9

>  <TDC_conf_true_inhibitor>  (43) 
1

>  <TDC_conf_non_inhibitor>  (43) 
0

>  <split>  (43) 
1

$$$$
43
     RDKit          3D

 64 66  0  0  0  0  0  0  0  0999 V2000
    6.6959    2.4591   -1.5374 C   0  0  0  0  0  0  0  0  0  0  0  0
    6.7595    1.7846   -0.1628 C   0  0  0  0  0  0  0  0  0  0  0  0
    6.0910    2.6325    0.9249 C   0  0  0  0  0  0  0  0  0  0  0  0
    8.2347    1.5785    0.2141 C   0  0  0  0  0  0  0  0  0  0  0  0
    6.2021    0.4466   -0.2054 O   0  0  0  0  0  0  0  0  0  0  0  0
    4.8940    0.2441   -0.4981 C   0  0  0  0  0  0  0  0  0  0  0  0
    4.0895    1.1238   -0.7778 O   0  0  0  0  0  0  0  0  0  0  0  0
    4.5587   -1.0853   -0.4577 N   0  0  0  0  0  0  0  0  0  0  0  0
    5.4205   -2.1534    0.0116 C   0  0  0  0  0  0  0  0  0  0  0  0
    4.9346   -3.4458   -0.6199 C   0  0  0  0  0  0  0  0  0  0  0  0
    3.1363   -3.2679   -0.7659 S   0  0  0  0  0  0  0  0  0  0  0  0
    3.1576   -1.4443   -0.5463 C   0  0  0  0  0  0  0  0  0  0  0  0
    2.3978   -1.1091    0.7767 C   0  0  0  0  0  0  0  0  0  0  0  0
    2.9906   -1.0898    1.8625 O   0  0  0  0  0  0  0  0  0  0  0  0
    1.0190   -0.8922    0.7019 N   0  0  0  0  0  0  0  0  0  0  0  0
    0.2893   -0.7672   -0.5575 C   0  0  0  0  0  0  0  0  0  0  0  0
   -1.1761   -0.3851   -0.3681 C   0  0  0  0  0  0  0  0  0  0  0  0
   -1.8596   -1.2999    0.6595 C   0  0  0  0  0  0  0  0  0  0  0  0
   -3.2902   -0.8311    0.9664 C   0  0  0  0  0  0  0  0  0  0  0  0
   -4.0417   -0.8218   -0.2479 O   0  0  0  0  0  0  0  0  0  0  0  0
   -5.3515   -0.4379   -0.1716 C   0  0  0  0  0  0  0  0  0  0  0  0
   -6.0391   -0.4758   -1.3896 C   0  0  0  0  0  0  0  0  0  0  0  0
   -7.3843   -0.1104   -1.4623 C   0  0  0  0  0  0  0  0  0  0  0  0
   -8.0397    0.3079   -0.3039 C   0  0  0  0  0  0  0  0  0  0  0  0
   -7.3710    0.3363    0.9219 C   0  0  0  0  0  0  0  0  0  0  0  0
   -6.0234   -0.0337    0.9843 C   0  0  0  0  0  0  0  0  0  0  0  0
   -9.7549    0.7646   -0.3836 S   0  0  0  0  0  6  0  0  0  0  0  0
  -10.3474    0.0451   -1.4949 O   0  0  0  0  0  0  0  0  0  0  0  0
  -10.3021    0.6486    0.9549 O   0  0  0  0  0  0  0  0  0  0  0  0
   -9.6966    2.4862   -0.8063 C   0  0  0  0  0  0  0  0  0  0  0  0
   -1.0323   -1.4368    1.9527 C   0  0  0  0  0  0  0  0  0  0  0  0
    0.2722   -0.6434    1.9286 C   0  0  0  0  0  0  0  0  0  0  0  0
    7.2633    3.3960   -1.5479 H   0  0  0  0  0  0  0  0  0  0  0  0
    5.6687    2.6965   -1.8300 H   0  0  0  0  0  0  0  0  0  0  0  0
    7.0989    1.7987   -2.3134 H   0  0  0  0  0  0  0  0  0  0  0  0
    6.6192    3.5808    1.0716 H   0  0  0  0  0  0  0  0  0  0  0  0
    6.0696    2.0939    1.8790 H   0  0  0  0  0  0  0  0  0  0  0  0
    5.0526    2.8721    0.6769 H   0  0  0  0  0  0  0  0  0  0  0  0
    8.3222    1.0629    1.1777 H   0  0  0  0  0  0  0  0  0  0  0  0
    8.7400    0.9433   -0.5228 H   0  0  0  0  0  0  0  0  0  0  0  0
    8.7749    2.5288    0.2801 H   0  0  0  0  0  0  0  0  0  0  0  0
    6.4682   -1.9607   -0.2400 H   0  0  0  0  0  0  0  0  0  0  0  0
    5.3458   -2.1938    1.1047 H   0  0  0  0  0  0  0  0  0  0  0  0
    5.3455   -3.5606   -1.6280 H   0  0  0  0  0  0  0  0  0  0  0  0
    5.2084   -4.3234   -0.0285 H   0  0  0  0  0  0  0  0  0  0  0  0
    2.7175   -0.9450   -1.4112 H   0  0  0  0  0  0  0  0  0  0  0  0
    0.3620   -1.7257   -1.0827 H   0  0  0  0  0  0  0  0  0  0  0  0
    0.7829   -0.0072   -1.1725 H   0  0  0  0  0  0  0  0  0  0  0  0
   -1.6894   -0.4374   -1.3353 H   0  0  0  0  0  0  0  0  0  0  0  0
   -1.2411    0.6591   -0.0353 H   0  0  0  0  0  0  0  0  0  0  0  0
   -1.9345   -2.2954    0.1989 H   0  0  0  0  0  0  0  0  0  0  0  0
   -3.2613    0.1771    1.3987 H   0  0  0  0  0  0  0  0  0  0  0  0
   -3.7507   -1.5266    1.6791 H   0  0  0  0  0  0  0  0  0  0  0  0
   -5.5211   -0.8033   -2.2886 H   0  0  0  0  0  0  0  0  0  0  0  0
   -7.9059   -0.1646   -2.4152 H   0  0  0  0  0  0  0  0  0  0  0  0
   -7.8872    0.6348    1.8323 H   0  0  0  0  0  0  0  0  0  0  0  0
   -5.5314   -0.0022    1.9512 H   0  0  0  0  0  0  0  0  0  0  0  0
  -10.7230    2.8534   -0.8731 H   0  0  0  0  0  0  0  0  0  0  0  0
   -9.1594    3.0272   -0.0249 H   0  0  0  0  0  0  0  0  0  0  0  0
   -9.1985    2.6007   -1.7709 H   0  0  0  0  0  0  0  0  0  0  0  0
   -1.6138   -1.1411    2.8339 H   0  0  0  0  0  0  0  0  0  0  0  0
   -0.7927   -2.4994    2.0909 H   0  0  0  0  0  0  0  0  0  0  0  0
    0.8650   -0.8994    2.8127 H   0  0  0  0  0  0  0  0  0  0  0  0
    0.0718    0.4335    1.9805 H   0  0  0  0  0  0  0  0  0  0  0  0
  1  2  1  0
  2  3  1  0
  2  4  1  0
  2  5  1  0
  5  6  1  0
  6  7  2  0
  6  8  1  0
  8  9  1  0
  9 10  1  0
 10 11  1  0
 11 12  1  0
 12 13  1  0
 13 14  2  0
 13 15  1  0
 15 16  1  0
 16 17  1  0
 17 18  1  0
 18 19  1  0
 19 20  1  0
 20 21  1  0
 21 22  2  0
 22 23  1  0
 23 24  2  0
 24 25  1  0
 25 26  2  0
 24 27  1  0
 27 28  2  0
 27 29  2  0
 27 30  1  0
 18 31  1  0
 31 32  1  0
 12  8  1  0
 32 15  1  0
 26 21  1  0
  1 33  1  0
  1 34  1  0
  1 35  1  0
  3 36  1  0
  3 37  1  0
  3 38  1  0
  4 39  1  0
  4 40  1  0
  4 41  1  0
  9 42  1  0
  9 43  1  0
 10 44  1  0
 10 45  1  0
 12 46  1  0
 16 47  1  0
 16 48  1  0
 17 49  1  0
 17 50  1  0
 18 51  1  0
 19 52  1  0
 19 53  1  0
 22 54  1  0
 23 55  1  0
 25 56  1  0
 26 57  1  0
 30 58  1  0
 30 59  1  0
 30 60  1  0
 31 61  1  0
 31 62  1  0
 32 63  1  0
 32 64  1  0
M  END
>  <Unnamed: 0>  (44) 
213

>  <ID>  (44) 
TRAIN_0213

>  <Canonical_Smiles>  (44) 
CC(C)(C)OC(=O)N1CCSC1C(=O)N2CCC(COc3ccc(cc3)S(=O)(=O)C)CC2

>  <Inhibition>  (44) 
41.8

>  <TDC_conf_true_inhibitor>  (44) 
0

>  <TDC_conf_non_inhibitor>  (44) 
0

>  <split>  (44) 
1

$$$$
44
     RDKit          3D

 42 44  0  0  0  0  0  0  0  0999 V2000
   -7.0509    0.6854   -0.6552 C   0  0  0  0  0  0  0  0  0  0  0  0
   -6.1862   -0.7695   -0.1170 S   0  0  0  0  0  6  0  0  0  0  0  0
   -6.3306   -1.8009   -1.1212 O   0  0  0  0  0  0  0  0  0  0  0  0
   -6.5016   -1.0014    1.2775 O   0  0  0  0  0  0  0  0  0  0  0  0
   -4.6784   -0.1609   -0.2144 O   0  0  0  0  0  0  0  0  0  0  0  0
   -3.6308   -0.9329    0.3555 C   0  0  0  0  0  0  0  0  0  0  0  0
   -2.2864   -0.2477    0.0915 C   0  0  0  0  0  0  0  0  0  0  0  0
   -1.1183   -1.1190    0.6050 C   0  0  0  0  0  0  0  0  0  0  0  0
   -0.0083   -0.3010    1.2643 C   0  0  0  0  0  0  0  0  0  0  0  0
    0.2408    0.9214    0.5085 N   0  0  0  0  0  0  0  0  0  0  0  0
   -0.8898    1.8367    0.3935 C   0  0  0  0  0  0  0  0  0  0  0  0
   -2.2342    1.1681    0.6918 C   0  0  0  0  0  0  0  0  0  0  0  0
    1.4981    1.4010    0.1163 C   0  0  0  0  0  0  0  0  0  0  0  0
    1.6499    2.5925   -0.1635 O   0  0  0  0  0  0  0  0  0  0  0  0
    2.6458    0.4862    0.0277 C   0  0  0  0  0  0  0  0  0  0  0  0
    4.0148    0.8648    0.0891 C   0  0  0  0  0  0  0  0  0  0  0  0
    4.7102   -0.3039   -0.0739 C   0  0  0  0  0  0  0  0  0  0  0  0
    3.8321   -1.3246   -0.2455 O   0  0  0  0  0  0  0  0  0  0  0  0
    2.5406   -0.8331   -0.2141 N   0  0  0  0  0  0  0  0  0  0  0  0
    6.2519   -0.4472   -0.0682 C   0  0  0  0  0  0  0  0  0  0  0  0
    6.8872   -1.5721   -0.8417 C   0  0  0  0  0  0  0  0  0  0  0  0
    7.0078   -0.1617   -1.3398 C   0  0  0  0  0  0  0  0  0  0  0  0
   -8.1199    0.4619   -0.6626 H   0  0  0  0  0  0  0  0  0  0  0  0
   -6.7168    0.9544   -1.6595 H   0  0  0  0  0  0  0  0  0  0  0  0
   -6.8447    1.4947    0.0493 H   0  0  0  0  0  0  0  0  0  0  0  0
   -3.6348   -1.9346   -0.0871 H   0  0  0  0  0  0  0  0  0  0  0  0
   -3.7994   -1.0288    1.4354 H   0  0  0  0  0  0  0  0  0  0  0  0
   -2.1795   -0.1341   -0.9968 H   0  0  0  0  0  0  0  0  0  0  0  0
   -0.7042   -1.6742   -0.2462 H   0  0  0  0  0  0  0  0  0  0  0  0
   -1.4664   -1.8750    1.3208 H   0  0  0  0  0  0  0  0  0  0  0  0
    0.8816   -0.9092    1.4231 H   0  0  0  0  0  0  0  0  0  0  0  0
   -0.3192    0.0091    2.2704 H   0  0  0  0  0  0  0  0  0  0  0  0
   -0.7283    2.6783    1.0798 H   0  0  0  0  0  0  0  0  0  0  0  0
   -0.8917    2.2396   -0.6259 H   0  0  0  0  0  0  0  0  0  0  0  0
   -3.0428    1.7983    0.3062 H   0  0  0  0  0  0  0  0  0  0  0  0
   -2.3789    1.1057    1.7782 H   0  0  0  0  0  0  0  0  0  0  0  0
    4.4159    1.8582    0.2278 H   0  0  0  0  0  0  0  0  0  0  0  0
    6.7263   -0.1659    0.8666 H   0  0  0  0  0  0  0  0  0  0  0  0
    6.2475   -2.2542   -1.3913 H   0  0  0  0  0  0  0  0  0  0  0  0
    7.7695   -2.0393   -0.4200 H   0  0  0  0  0  0  0  0  0  0  0  0
    7.9711    0.3271   -1.2565 H   0  0  0  0  0  0  0  0  0  0  0  0
    6.4511    0.1081   -2.2301 H   0  0  0  0  0  0  0  0  0  0  0  0
  1  2  1  0
  2  3  2  0
  2  4  2  0
  2  5  1  0
  5  6  1  0
  6  7  1  0
  7  8  1  0
  8  9  1  0
  9 10  1  0
 10 11  1  0
 11 12  1  0
 10 13  1  0
 13 14  2  0
 13 15  1  0
 15 16  1  0
 16 17  2  0
 17 18  1  0
 18 19  1  0
 17 20  1  0
 20 21  1  0
 21 22  1  0
 12  7  1  0
 19 15  2  0
 22 20  1  0
  1 23  1  0
  1 24  1  0
  1 25  1  0
  6 26  1  0
  6 27  1  0
  7 28  1  0
  8 29  1  0
  8 30  1  0
  9 31  1  0
  9 32  1  0
 11 33  1  0
 11 34  1  0
 12 35  1  0
 12 36  1  0
 16 37  1  0
 20 38  1  0
 21 39  1  0
 21 40  1  0
 22 41  1  0
 22 42  1  0
M  END
>  <Unnamed: 0>  (45) 
215

>  <ID>  (45) 
TRAIN_0215

>  <Canonical_Smiles>  (45) 
CS(=O)(=O)OCC1CCN(CC1)C(=O)c2cc(on2)C3CC3

>  <Inhibition>  (45) 
0.648

>  <TDC_conf_true_inhibitor>  (45) 
0

>  <TDC_conf_non_inhibitor>  (45) 
1

>  <split>  (45) 
1

$$$$
45
     RDKit          3D

 48 50  0  0  0  0  0  0  0  0999 V2000
   11.3158   -0.4657    0.7318 O   0  0  0  0  0  0  0  0  0  0  0  0
   10.4007    0.0693   -0.1089 C   0  0  0  0  0  0  0  0  0  0  0  0
   10.7698    0.6473   -1.1170 O   0  0  0  0  0  0  0  0  0  0  0  0
    8.9819   -0.1565    0.3799 C   0  0  0  0  0  0  0  0  0  0  0  0
    8.0510    0.4266   -0.5233 O   0  0  0  0  0  0  0  0  0  0  0  0
    6.7257    0.3168   -0.2084 C   0  0  0  0  0  0  0  0  0  0  0  0
    6.1965   -0.3218    0.9144 C   0  0  0  0  0  0  0  0  0  0  0  0
    4.8111   -0.3576    1.1138 C   0  0  0  0  0  0  0  0  0  0  0  0
    3.9504    0.2428    0.1928 C   0  0  0  0  0  0  0  0  0  0  0  0
    4.4759    0.8808   -0.9302 C   0  0  0  0  0  0  0  0  0  0  0  0
    5.8588    0.9157   -1.1269 C   0  0  0  0  0  0  0  0  0  0  0  0
    2.5363    0.2025    0.4008 C   0  0  0  0  0  0  0  0  0  0  0  0
    1.3483    0.1671    0.5766 C   0  0  0  0  0  0  0  0  0  0  0  0
   -0.0653    0.1238    0.7871 C   0  0  0  0  0  0  0  0  0  0  0  0
   -0.8414    1.2635    0.5607 C   0  0  0  0  0  0  0  0  0  0  0  0
   -2.2244    1.2254    0.7672 C   0  0  0  0  0  0  0  0  0  0  0  0
   -2.8361    0.0401    1.1959 C   0  0  0  0  0  0  0  0  0  0  0  0
   -2.0518   -1.0954    1.4368 C   0  0  0  0  0  0  0  0  0  0  0  0
   -0.6706   -1.0549    1.2277 C   0  0  0  0  0  0  0  0  0  0  0  0
   -4.3036   -0.0498    1.4346 C   0  0  0  0  0  0  0  0  0  0  0  0
   -4.7434   -0.8556    2.2467 O   0  0  0  0  0  0  0  0  0  0  0  0
   -5.0958    0.7846    0.6756 N   0  0  0  0  0  0  0  0  0  0  0  0
   -6.5382    0.6791    0.7000 C   0  0  0  0  0  0  0  0  0  0  0  0
   -7.0368   -0.1028   -0.4878 C   0  0  0  0  0  0  0  0  0  0  0  0
   -7.5189    0.5532   -1.6293 C   0  0  0  0  0  0  0  0  0  0  0  0
   -7.9579   -0.1800   -2.7333 C   0  0  0  0  0  0  0  0  0  0  0  0
   -7.9134   -1.5729   -2.7099 C   0  0  0  0  0  0  0  0  0  0  0  0
   -7.4281   -2.2352   -1.5840 C   0  0  0  0  0  0  0  0  0  0  0  0
   -6.9902   -1.5043   -0.4791 C   0  0  0  0  0  0  0  0  0  0  0  0
   12.1729   -0.2519    0.3043 H   0  0  0  0  0  0  0  0  0  0  0  0
    8.8228   -1.2394    0.4353 H   0  0  0  0  0  0  0  0  0  0  0  0
    8.8965    0.3156    1.3651 H   0  0  0  0  0  0  0  0  0  0  0  0
    6.8273   -0.8022    1.6548 H   0  0  0  0  0  0  0  0  0  0  0  0
    4.4103   -0.8578    1.9933 H   0  0  0  0  0  0  0  0  0  0  0  0
    3.8196    1.3524   -1.6573 H   0  0  0  0  0  0  0  0  0  0  0  0
    6.2647    1.4137   -2.0045 H   0  0  0  0  0  0  0  0  0  0  0  0
   -0.3731    2.1892    0.2324 H   0  0  0  0  0  0  0  0  0  0  0  0
   -2.8016    2.1332    0.6171 H   0  0  0  0  0  0  0  0  0  0  0  0
   -2.5166   -2.0157    1.7860 H   0  0  0  0  0  0  0  0  0  0  0  0
   -0.0748   -1.9451    1.4148 H   0  0  0  0  0  0  0  0  0  0  0  0
   -4.6919    1.2294   -0.1360 H   0  0  0  0  0  0  0  0  0  0  0  0
   -6.9358    1.6997    0.6779 H   0  0  0  0  0  0  0  0  0  0  0  0
   -6.8827    0.2175    1.6320 H   0  0  0  0  0  0  0  0  0  0  0  0
   -7.5573    1.6397   -1.6665 H   0  0  0  0  0  0  0  0  0  0  0  0
   -8.3348    0.3351   -3.6131 H   0  0  0  0  0  0  0  0  0  0  0  0
   -8.2558   -2.1433   -3.5696 H   0  0  0  0  0  0  0  0  0  0  0  0
   -7.3896   -3.3212   -1.5644 H   0  0  0  0  0  0  0  0  0  0  0  0
   -6.6063   -2.0307    0.3941 H   0  0  0  0  0  0  0  0  0  0  0  0
  1  2  1  0
  2  3  2  0
  2  4  1  0
  4  5  1  0
  5  6  1  0
  6  7  2  0
  7  8  1  0
  8  9  2  0
  9 10  1  0
 10 11  2  0
  9 12  1  0
 12 13  3  0
 13 14  1  0
 14 15  2  0
 15 16  1  0
 16 17  2  0
 17 18  1  0
 18 19  2  0
 17 20  1  0
 20 21  2  0
 20 22  1  0
 22 23  1  0
 23 24  1  0
 24 25  2  0
 25 26  1  0
 26 27  2  0
 27 28  1  0
 28 29  2  0
 11  6  1  0
 19 14  1  0
 29 24  1  0
  1 30  1  0
  4 31  1  0
  4 32  1  0
  7 33  1  0
  8 34  1  0
 10 35  1  0
 11 36  1  0
 15 37  1  0
 16 38  1  0
 18 39  1  0
 19 40  1  0
 22 41  1  0
 23 42  1  0
 23 43  1  0
 25 44  1  0
 26 45  1  0
 27 46  1  0
 28 47  1  0
 29 48  1  0
M  END
>  <Unnamed: 0>  (46) 
219

>  <ID>  (46) 
TRAIN_0219

>  <Canonical_Smiles>  (46) 
OC(=O)COc1ccc(cc1)C#Cc2ccc(cc2)C(=O)NCc3ccccc3

>  <Inhibition>  (46) 
39.5

>  <TDC_conf_true_inhibitor>  (46) 
0

>  <TDC_conf_non_inhibitor>  (46) 
1

>  <split>  (46) 
1

$$$$
46
     RDKit          3D

 63 66  0  0  0  0  0  0  0  0999 V2000
    0.6828    0.0000    0.0000 Cl  0  0  0  0  0  0  0  0  0  0  0  0
   -2.9769   -1.2675    3.7227 C   0  0  0  0  0  0  0  0  0  0  0  0
   -2.6960   -0.9617    2.3700 O   0  0  0  0  0  0  0  0  0  0  0  0
   -3.6702   -0.9407    1.3883 C   0  0  0  0  0  0  0  0  0  0  0  0
   -4.9918   -1.2164    1.6452 C   0  0  0  0  0  0  0  0  0  0  0  0
   -5.9837   -1.2034    0.6889 C   0  0  0  0  0  0  0  0  0  0  0  0
   -7.3940   -1.5029    0.9622 C   0  0  0  0  0  0  0  0  0  0  0  0
   -8.3472   -0.7428    0.2250 N   0  0  0  0  0  0  0  0  0  0  0  0
   -7.8921   -0.1329   -0.9782 C   0  0  0  0  0  0  0  0  0  0  0  0
   -6.7260   -0.8821   -1.6363 C   0  0  0  0  0  0  0  0  0  0  0  0
   -5.6472   -0.8936   -0.6257 C   0  0  0  0  0  0  0  0  0  0  0  0
   -4.3189   -0.6163   -0.8847 C   0  0  0  0  0  0  0  0  0  0  0  0
   -3.3189   -0.6267    0.0636 C   0  0  0  0  0  0  0  0  0  0  0  0
   -1.9668   -0.3449   -0.1974 N   0  0  0  0  0  0  0  0  0  0  0  0
   -1.3818    0.0194   -1.4286 C   0  0  0  0  0  0  0  0  0  0  0  0
   -2.0605    0.1557   -2.5742 N   0  0  0  0  0  0  0  0  0  0  0  0
   -1.4567    0.5119   -3.7204 C   0  0  0  0  0  0  0  0  0  0  0  0
   -0.1140    0.7502   -3.7589 C   0  0  0  0  0  0  0  0  0  0  0  0
    0.7000    1.2139   -5.2300 Cl  0  0  0  0  0  0  0  0  0  0  0  0
    0.6167    0.6152   -2.5805 C   0  0  0  0  0  0  0  0  0  0  0  0
    1.9905    0.8654   -2.6011 N   0  0  0  0  0  0  0  0  0  0  0  0
    2.9082    0.7717   -1.5288 C   0  0  0  0  0  0  0  0  0  0  0  0
    2.6037    0.3607   -0.2567 C   0  0  0  0  0  0  0  0  0  0  0  0
    3.5611    0.2781    0.7681 C   0  0  0  0  0  0  0  0  0  0  0  0
    4.8727    0.6124    0.5357 C   0  0  0  0  0  0  0  0  0  0  0  0
    5.1880    1.0255   -0.7357 C   0  0  0  0  0  0  0  0  0  0  0  0
    4.2558    1.1094   -1.7463 C   0  0  0  0  0  0  0  0  0  0  0  0
    4.6103    1.5332   -3.0253 O   0  0  0  0  0  0  0  0  0  0  0  0
    5.9465    1.8821   -3.2890 C   0  0  0  0  0  0  0  0  0  0  0  0
    5.8617    0.5382    1.5590 N   0  0  0  0  0  0  0  0  0  0  0  0
    7.2548    0.7274    1.2834 C   0  0  0  0  0  0  0  0  0  0  0  0
    8.1673    0.0006    2.2573 C   0  0  0  0  0  0  0  0  0  0  0  0
    7.4497   -0.7198    3.2155 O   0  0  0  0  0  0  0  0  0  0  0  0
    6.2224   -0.3494    3.7058 N   0  0  0  0  0  0  0  0  0  0  0  0
    5.4222    0.2725    2.9057 C   0  0  0  0  0  0  0  0  0  0  0  0
   -0.0477    0.2585   -1.4781 N   0  0  0  0  0  0  0  0  0  0  0  0
   -0.6828    0.0000    0.0000 H   0  0  0  0  0  0  0  0  0  0  0  0
   -2.1269   -0.9130    4.3494 H   0  0  0  0  0  0  0  0  0  0  0  0
   -3.1084   -2.3710    3.8921 H   0  0  0  0  0  0  0  0  0  0  0  0
   -3.9105   -0.7332    4.0210 H   0  0  0  0  0  0  0  0  0  0  0  0
   -5.2532   -1.4587    2.6745 H   0  0  0  0  0  0  0  0  0  0  0  0
   -7.5708   -1.4272    2.0769 H   0  0  0  0  0  0  0  0  0  0  0  0
   -7.6081   -2.5916    0.7384 H   0  0  0  0  0  0  0  0  0  0  0  0
   -9.2423   -1.2400    0.0454 H   0  0  0  0  0  0  0  0  0  0  0  0
   -7.5337    0.9026   -0.7452 H   0  0  0  0  0  0  0  0  0  0  0  0
   -8.7255   -0.0803   -1.7060 H   0  0  0  0  0  0  0  0  0  0  0  0
   -6.4718   -0.3478   -2.5644 H   0  0  0  0  0  0  0  0  0  0  0  0
   -7.0641   -1.9174   -1.8618 H   0  0  0  0  0  0  0  0  0  0  0  0
   -4.1014   -0.3804   -1.9262 H   0  0  0  0  0  0  0  0  0  0  0  0
   -1.2925   -0.4113    0.6221 H   0  0  0  0  0  0  0  0  0  0  0  0
   -2.0322    0.6181   -4.6489 H   0  0  0  0  0  0  0  0  0  0  0  0
    2.3998    1.1639   -3.5435 H   0  0  0  0  0  0  0  0  0  0  0  0
    1.5825    0.0818   -0.0193 H   0  0  0  0  0  0  0  0  0  0  0  0
    3.2469   -0.0555    1.7474 H   0  0  0  0  0  0  0  0  0  0  0  0
    6.2281    1.3050   -0.9575 H   0  0  0  0  0  0  0  0  0  0  0  0
    6.1481    2.8194   -2.7171 H   0  0  0  0  0  0  0  0  0  0  0  0
    6.6128    1.0460   -2.9522 H   0  0  0  0  0  0  0  0  0  0  0  0
    6.1387    2.0335   -4.3601 H   0  0  0  0  0  0  0  0  0  0  0  0
    7.4803    1.8233    1.3144 H   0  0  0  0  0  0  0  0  0  0  0  0
    7.4681    0.3437    0.2681 H   0  0  0  0  0  0  0  0  0  0  0  0
    8.7886    0.7596    2.8053 H   0  0  0  0  0  0  0  0  0  0  0  0
    8.8596   -0.6520    1.7186 H   0  0  0  0  0  0  0  0  0  0  0  0
    4.4464    0.5815    3.2583 H   0  0  0  0  0  0  0  0  0  0  0  0
  2  3  1  0
  3  4  1  0
  4  5  2  0
  5  6  1  0
  6  7  1  0
  7  8  1  0
  8  9  1  0
  9 10  1  0
 10 11  1  0
 11 12  1  0
 12 13  2  0
 13 14  1  0
 14 15  1  0
 15 16  2  0
 16 17  1  0
 17 18  2  0
 18 19  1  0
 18 20  1  0
 20 21  1  0
 21 22  1  0
 22 23  2  0
 23 24  1  0
 24 25  2  0
 25 26  1  0
 26 27  2  0
 27 28  1  0
 28 29  1  0
 25 30  1  0
 30 31  1  0
 31 32  1  0
 32 33  1  0
 33 34  1  0
 34 35  2  0
 20 36  2  0
 13  4  1  0
 11  6  2  0
 36 15  1  0
 27 22  1  0
 35 30  1  0
  1 37  1  0
  2 38  1  0
  2 39  1  0
  2 40  1  0
  5 41  1  0
  7 42  1  0
  7 43  1  0
  8 44  1  0
  9 45  1  0
  9 46  1  0
 10 47  1  0
 10 48  1  0
 12 49  1  0
 14 50  1  0
 17 51  1  0
 21 52  1  0
 23 53  1  0
 24 54  1  0
 26 55  1  0
 29 56  1  0
 29 57  1  0
 29 58  1  0
 31 59  1  0
 31 60  1  0
 32 61  1  0
 32 62  1  0
 35 63  1  0
M  END
>  <Unnamed: 0>  (47) 
221

>  <ID>  (47) 
TRAIN_0221

>  <Canonical_Smiles>  (47) 
Cl.COc1cc2CNCCc2cc1Nc3ncc(Cl)c(Nc4ccc(cc4OC)N5CCON=C5)n3

>  <Inhibition>  (47) 
77.1

>  <TDC_conf_true_inhibitor>  (47) 
1

>  <TDC_conf_non_inhibitor>  (47) 
0

>  <split>  (47) 
1

$$$$
47
     RDKit          3D

 34 36  0  0  0  0  0  0  0  0999 V2000
   -3.0320   -1.9777   -0.6675 C   0  0  0  0  0  0  0  0  0  0  0  0
   -3.3559   -0.6310   -0.0777 C   0  0  0  0  0  0  0  0  0  0  0  0
   -4.7159   -0.2868    0.0550 C   0  0  0  0  0  0  0  0  0  0  0  0
   -5.0935    0.9298    0.6106 C   0  0  0  0  0  0  0  0  0  0  0  0
   -6.4260    1.1952    0.7141 O   0  0  0  0  0  0  0  0  0  0  0  0
   -4.1389    1.8340    1.0460 C   0  0  0  0  0  0  0  0  0  0  0  0
   -2.7868    1.5112    0.9108 C   0  0  0  0  0  0  0  0  0  0  0  0
   -2.3672    0.2899    0.3405 C   0  0  0  0  0  0  0  0  0  0  0  0
   -0.9196    0.0685    0.2373 C   0  0  0  0  0  0  0  0  0  0  0  0
   -0.4809   -0.8554   -0.6776 O   0  0  0  0  0  0  0  0  0  0  0  0
    0.8762   -0.8190   -0.5687 C   0  0  0  0  0  0  0  0  0  0  0  0
    1.7984   -1.5818   -1.2755 C   0  0  0  0  0  0  0  0  0  0  0  0
    3.1440   -1.3428   -0.9706 C   0  0  0  0  0  0  0  0  0  0  0  0
    3.5039   -0.3802   -0.0134 C   0  0  0  0  0  0  0  0  0  0  0  0
    2.5436    0.3630    0.6939 C   0  0  0  0  0  0  0  0  0  0  0  0
    1.1984    0.1275    0.3889 C   0  0  0  0  0  0  0  0  0  0  0  0
    0.0529    0.6934    0.8833 N   0  0  0  0  0  0  0  0  0  0  0  0
    5.2248   -0.1161    0.3572 S   0  0  0  0  0  6  0  0  0  0  0  0
    5.3115    0.2656    1.7531 O   0  0  0  0  0  0  0  0  0  0  0  0
    5.9603   -1.2585   -0.1501 O   0  0  0  0  0  0  0  0  0  0  0  0
    5.6450    1.2929   -0.6349 C   0  0  0  0  0  0  0  0  0  0  0  0
   -2.3307   -2.5227   -0.0276 H   0  0  0  0  0  0  0  0  0  0  0  0
   -3.9275   -2.6035   -0.7523 H   0  0  0  0  0  0  0  0  0  0  0  0
   -2.6156   -1.8636   -1.6730 H   0  0  0  0  0  0  0  0  0  0  0  0
   -5.4937   -0.9749   -0.2699 H   0  0  0  0  0  0  0  0  0  0  0  0
   -6.5387    2.0662    1.1290 H   0  0  0  0  0  0  0  0  0  0  0  0
   -4.4171    2.7856    1.4870 H   0  0  0  0  0  0  0  0  0  0  0  0
   -2.0428    2.2302    1.2541 H   0  0  0  0  0  0  0  0  0  0  0  0
    1.4897   -2.3174   -2.0082 H   0  0  0  0  0  0  0  0  0  0  0  0
    3.9100   -1.9232   -1.4847 H   0  0  0  0  0  0  0  0  0  0  0  0
    2.8151    1.0883    1.4538 H   0  0  0  0  0  0  0  0  0  0  0  0
    5.4777    1.0509   -1.6862 H   0  0  0  0  0  0  0  0  0  0  0  0
    6.7004    1.5204   -0.4699 H   0  0  0  0  0  0  0  0  0  0  0  0
    5.0309    2.1419   -0.3291 H   0  0  0  0  0  0  0  0  0  0  0  0
  1  2  1  0
  2  3  2  0
  3  4  1  0
  4  5  1  0
  4  6  2  0
  6  7  1  0
  7  8  2  0
  8  9  1  0
  9 10  1  0
 10 11  1  0
 11 12  2  0
 12 13  1  0
 13 14  2  0
 14 15  1  0
 15 16  2  0
 16 17  1  0
 14 18  1  0
 18 19  2  0
 18 20  2  0
 18 21  1  0
  8  2  1  0
 17  9  2  0
 16 11  1  0
  1 22  1  0
  1 23  1  0
  1 24  1  0
  3 25  1  0
  5 26  1  0
  6 27  1  0
  7 28  1  0
 12 29  1  0
 13 30  1  0
 15 31  1  0
 21 32  1  0
 21 33  1  0
 21 34  1  0
M  END
>  <Unnamed: 0>  (48) 
225

>  <ID>  (48) 
TRAIN_0225

>  <Canonical_Smiles>  (48) 
Cc1cc(O)ccc1c2oc3ccc(cc3n2)S(=O)(=O)C

>  <Inhibition>  (48) 
45.7

>  <TDC_conf_true_inhibitor>  (48) 
0

>  <TDC_conf_non_inhibitor>  (48) 
1

>  <split>  (48) 
1

$$$$
48
     RDKit          3D

 27 29  0  0  0  0  0  0  0  0999 V2000
    5.9964   -0.2846   -0.1592 O   0  0  0  0  0  0  0  0  0  0  0  0
    4.6377   -0.1824   -0.1350 C   0  0  0  0  0  0  0  0  0  0  0  0
    4.0022    1.0529   -0.1775 C   0  0  0  0  0  0  0  0  0  0  0  0
    2.6051    1.1061   -0.1502 C   0  0  0  0  0  0  0  0  0  0  0  0
    1.8374   -0.0686   -0.0807 C   0  0  0  0  0  0  0  0  0  0  0  0
    2.5051   -1.3025   -0.0390 C   0  0  0  0  0  0  0  0  0  0  0  0
    3.9015   -1.3583   -0.0661 C   0  0  0  0  0  0  0  0  0  0  0  0
    0.3794    0.0246   -0.0540 C   0  0  0  0  0  0  0  0  0  0  0  0
   -0.3151   -1.1590    0.0143 O   0  0  0  0  0  0  0  0  0  0  0  0
   -1.6227   -0.7762    0.0248 C   0  0  0  0  0  0  0  0  0  0  0  0
   -2.7396   -1.6008    0.0858 C   0  0  0  0  0  0  0  0  0  0  0  0
   -3.9786   -0.9462    0.0824 C   0  0  0  0  0  0  0  0  0  0  0  0
   -4.0540    0.4596    0.0204 C   0  0  0  0  0  0  0  0  0  0  0  0
   -2.8985    1.2620   -0.0405 C   0  0  0  0  0  0  0  0  0  0  0  0
   -1.6609    0.6071   -0.0371 C   0  0  0  0  0  0  0  0  0  0  0  0
   -0.3848    1.1038   -0.0867 N   0  0  0  0  0  0  0  0  0  0  0  0
   -5.3723    1.1098    0.0189 N   0  0  0  0  0  4  0  0  0  0  0  0
   -6.3729    0.3812    0.0732 O   0  0  0  0  0  0  0  0  0  0  0  0
   -5.4049    2.3467   -0.0364 O   0  0  0  0  0  1  0  0  0  0  0  0
    6.3755    0.6085   -0.2077 H   0  0  0  0  0  0  0  0  0  0  0  0
    4.5673    1.9780   -0.2313 H   0  0  0  0  0  0  0  0  0  0  0  0
    2.1108    2.0763   -0.1837 H   0  0  0  0  0  0  0  0  0  0  0  0
    1.9469   -2.2346    0.0150 H   0  0  0  0  0  0  0  0  0  0  0  0
    4.4115   -2.3172   -0.0335 H   0  0  0  0  0  0  0  0  0  0  0  0
   -2.6518   -2.6797    0.1328 H   0  0  0  0  0  0  0  0  0  0  0  0
   -4.8837   -1.5518    0.1291 H   0  0  0  0  0  0  0  0  0  0  0  0
   -2.9370    2.3452   -0.0887 H   0  0  0  0  0  0  0  0  0  0  0  0
  1  2  1  0
  2  3  2  0
  3  4  1  0
  4  5  2  0
  5  6  1  0
  6  7  2  0
  5  8  1  0
  8  9  1  0
  9 10  1  0
 10 11  2  0
 11 12  1  0
 12 13  2  0
 13 14  1  0
 14 15  2  0
 15 16  1  0
 13 17  1  0
 17 18  2  0
 17 19  1  0
  7  2  1  0
 16  8  2  0
 15 10  1  0
  1 20  1  0
  3 21  1  0
  4 22  1  0
  6 23  1  0
  7 24  1  0
 11 25  1  0
 12 26  1  0
 14 27  1  0
M  CHG  2  17   1  19  -1
M  END
>  <Unnamed: 0>  (49) 
232

>  <ID>  (49) 
TRAIN_0232

>  <Canonical_Smiles>  (49) 
Oc1ccc(cc1)c2oc3ccc(cc3n2)[N+](=O)[O-]

>  <Inhibition>  (49) 
72.8

>  <TDC_conf_true_inhibitor>  (49) 
1

>  <TDC_conf_non_inhibitor>  (49) 
0

>  <split>  (49) 
1

$$$$
49
     RDKit          3D

 32 34  0  0  0  0  0  0  0  0999 V2000
   -0.3073    2.4773    1.7616 O   0  0  0  0  0  0  0  0  0  0  0  0
   -1.2489    2.8256    0.8601 C   0  0  0  0  0  0  0  0  0  0  0  0
   -1.9598    3.7975    1.0794 O   0  0  0  0  0  0  0  0  0  0  0  0
   -1.3762    1.9037   -0.3526 C   0  0  0  0  0  0  0  0  0  0  0  0
   -2.7291    1.1793   -0.2683 C   0  0  0  0  0  0  0  0  0  0  0  0
   -2.3183   -0.2598   -0.2208 C   0  0  0  0  0  0  0  0  0  0  0  0
   -3.1669   -1.3556   -0.1386 C   0  0  0  0  0  0  0  0  0  0  0  0
   -2.6092   -2.6305   -0.2005 C   0  0  0  0  0  0  0  0  0  0  0  0
   -1.2276   -2.7882   -0.3647 C   0  0  0  0  0  0  0  0  0  0  0  0
   -0.3833   -1.6740   -0.4498 C   0  0  0  0  0  0  0  0  0  0  0  0
   -0.9343   -0.4075   -0.3435 C   0  0  0  0  0  0  0  0  0  0  0  0
   -0.3287    0.8605   -0.4084 N   0  0  0  0  0  0  0  0  0  0  0  0
    0.9782    1.2315   -0.6741 C   0  0  0  0  0  0  0  0  0  0  0  0
    1.2721    2.3455   -1.1090 O   0  0  0  0  0  0  0  0  0  0  0  0
    2.0882    0.3279   -0.3501 C   0  0  0  0  0  0  0  0  0  0  0  0
    2.2459   -0.2077    0.9297 C   0  0  0  0  0  0  0  0  0  0  0  0
    3.3436   -1.0239    1.1887 C   0  0  0  0  0  0  0  0  0  0  0  0
    4.2458   -1.2593    0.1608 C   0  0  0  0  0  0  0  0  0  0  0  0
    4.1291   -0.7345   -1.0804 N   0  0  0  0  0  0  0  0  0  0  0  0
    3.0592    0.0678   -1.3045 C   0  0  0  0  0  0  0  0  0  0  0  0
   -0.3512    3.1880    2.4348 H   0  0  0  0  0  0  0  0  0  0  0  0
   -1.3005    2.5283   -1.2509 H   0  0  0  0  0  0  0  0  0  0  0  0
   -3.3186    1.4472    0.6145 H   0  0  0  0  0  0  0  0  0  0  0  0
   -3.3208    1.3691   -1.1703 H   0  0  0  0  0  0  0  0  0  0  0  0
   -4.2411   -1.2279   -0.0458 H   0  0  0  0  0  0  0  0  0  0  0  0
   -3.2501   -3.5072   -0.1431 H   0  0  0  0  0  0  0  0  0  0  0  0
   -0.8063   -3.7885   -0.4391 H   0  0  0  0  0  0  0  0  0  0  0  0
    0.6717   -1.8481   -0.6141 H   0  0  0  0  0  0  0  0  0  0  0  0
    1.5265    0.0129    1.7140 H   0  0  0  0  0  0  0  0  0  0  0  0
    3.4966   -1.4612    2.1692 H   0  0  0  0  0  0  0  0  0  0  0  0
    5.1174   -1.8898    0.3152 H   0  0  0  0  0  0  0  0  0  0  0  0
    3.0039    0.5014   -2.2994 H   0  0  0  0  0  0  0  0  0  0  0  0
  1  2  1  0
  2  3  2  0
  2  4  1  0
  4  5  1  0
  5  6  1  0
  6  7  2  0
  7  8  1  0
  8  9  2  0
  9 10  1  0
 10 11  2  0
 11 12  1  0
 12 13  1  0
 13 14  2  0
 13 15  1  0
 15 16  2  0
 16 17  1  0
 17 18  2  0
 18 19  1  0
 19 20  2  0
 12  4  1  0
 11  6  1  0
 20 15  1  0
  1 21  1  0
  4 22  1  0
  5 23  1  0
  5 24  1  0
  7 25  1  0
  8 26  1  0
  9 27  1  0
 10 28  1  0
 16 29  1  0
 17 30  1  0
 18 31  1  0
 20 32  1  0
M  END
>  <Unnamed: 0>  (50) 
227

>  <ID>  (50) 
TRAIN_0227

>  <Canonical_Smiles>  (50) 
OC(=O)C1Cc2ccccc2N1C(=O)c3cccnc3

>  <Inhibition>  (50) 
18.4

>  <TDC_conf_true_inhibitor>  (50) 
0

>  <TDC_conf_non_inhibitor>  (50) 
1

>  <split>  (50) 
1

$$$$
50
     RDKit          3D

 28 30  0  0  0  0  0  0  0  0999 V2000
   -1.9152   -1.5980    0.7778 C   0  0  0  0  0  0  0  0  0  0  0  0
   -2.2984   -0.2118    0.3704 C   0  0  0  0  0  0  0  0  0  0  0  0
   -3.5290    0.3136    0.7205 C   0  0  0  0  0  0  0  0  0  0  0  0
   -3.9395    1.5502    0.3920 N   0  0  0  0  0  0  0  0  0  0  0  0
   -3.0636    2.2707   -0.3161 C   0  0  0  0  0  0  0  0  0  0  0  0
   -3.5535    3.8422   -0.7621 Cl  0  0  0  0  0  0  0  0  0  0  0  0
   -1.8441    1.8922   -0.7105 N   0  0  0  0  0  0  0  0  0  0  0  0
   -1.4733    0.6504   -0.3424 C   0  0  0  0  0  0  0  0  0  0  0  0
   -0.1228    0.2727   -0.7728 C   0  0  0  0  0  0  0  0  0  0  0  0
    0.1265    0.0681   -2.0817 C   0  0  0  0  0  0  0  0  0  0  0  0
    1.7636   -0.4100   -2.3778 S   0  0  0  0  0  6  0  0  0  0  0  0
    2.4749    0.6248   -3.0957 O   0  0  0  0  0  0  0  0  0  0  0  0
    1.8084   -1.8067   -2.7559 O   0  0  0  0  0  0  0  0  0  0  0  0
    2.1951   -0.3005   -0.6928 C   0  0  0  0  0  0  0  0  0  0  0  0
    3.4466   -0.5348   -0.1517 C   0  0  0  0  0  0  0  0  0  0  0  0
    3.5823   -0.3696    1.2248 C   0  0  0  0  0  0  0  0  0  0  0  0
    2.4825    0.0256    2.0055 C   0  0  0  0  0  0  0  0  0  0  0  0
    1.2289    0.2569    1.4218 C   0  0  0  0  0  0  0  0  0  0  0  0
    1.0827    0.0822    0.0524 C   0  0  0  0  0  0  0  0  0  0  0  0
   -1.2559   -1.5707    1.6503 H   0  0  0  0  0  0  0  0  0  0  0  0
   -2.7992   -2.1897    1.0403 H   0  0  0  0  0  0  0  0  0  0  0  0
   -1.4141   -2.1260   -0.0397 H   0  0  0  0  0  0  0  0  0  0  0  0
   -4.2506   -0.2650    1.2930 H   0  0  0  0  0  0  0  0  0  0  0  0
   -0.5737    0.1600   -2.8962 H   0  0  0  0  0  0  0  0  0  0  0  0
    4.2856   -0.8282   -0.7742 H   0  0  0  0  0  0  0  0  0  0  0  0
    4.5472   -0.5384    1.6989 H   0  0  0  0  0  0  0  0  0  0  0  0
    2.6100    0.1615    3.0780 H   0  0  0  0  0  0  0  0  0  0  0  0
    0.3984    0.5783    2.0440 H   0  0  0  0  0  0  0  0  0  0  0  0
  1  2  1  0
  2  3  2  0
  3  4  1  0
  4  5  2  0
  5  6  1  0
  5  7  1  0
  7  8  2  0
  8  9  1  0
  9 10  2  0
 10 11  1  0
 11 12  2  0
 11 13  2  0
 11 14  1  0
 14 15  2  0
 15 16  1  0
 16 17  2  0
 17 18  1  0
 18 19  2  0
  8  2  1  0
 19  9  1  0
 19 14  1  0
  1 20  1  0
  1 21  1  0
  1 22  1  0
  3 23  1  0
 10 24  1  0
 15 25  1  0
 16 26  1  0
 17 27  1  0
 18 28  1  0
M  END
>  <Unnamed: 0>  (51) 
229

>  <ID>  (51) 
TRAIN_0229

>  <Canonical_Smiles>  (51) 
Cc1cnc(Cl)nc1C2=CS(=O)(=O)c3ccccc23

>  <Inhibition>  (51) 
40.8

>  <TDC_conf_true_inhibitor>  (51) 
1

>  <TDC_conf_non_inhibitor>  (51) 
0

>  <split>  (51) 
1

$$$$
51
     RDKit          3D

 52 55  0  0  0  0  0  0  0  0999 V2000
    9.1918    0.9406   -1.2106 C   0  0  0  0  0  0  0  0  0  0  0  0
    7.9680    1.5819   -2.3837 S   0  0  0  0  0  0  0  0  0  0  0  0
    6.4736    1.1159   -1.5317 C   0  0  0  0  0  0  0  0  0  0  0  0
    6.1477   -0.2269   -1.3219 C   0  0  0  0  0  0  0  0  0  0  0  0
    4.9652   -0.5722   -0.6586 C   0  0  0  0  0  0  0  0  0  0  0  0
    4.0849    0.4213   -0.2117 C   0  0  0  0  0  0  0  0  0  0  0  0
    4.4218    1.7647   -0.4158 C   0  0  0  0  0  0  0  0  0  0  0  0
    5.6021    2.1100   -1.0813 C   0  0  0  0  0  0  0  0  0  0  0  0
    2.8448    0.0879    0.4915 C   0  0  0  0  0  0  0  0  0  0  0  0
    2.4802    0.6128    1.6470 N   0  0  0  0  0  0  0  0  0  0  0  0
    1.3066    0.0013    1.9890 C   0  0  0  0  0  0  0  0  0  0  0  0
    0.8779   -0.8628    1.0030 C   0  0  0  0  0  0  0  0  0  0  0  0
   -0.2754   -1.7330    0.9477 C   0  0  0  0  0  0  0  0  0  0  0  0
   -0.1882   -2.8607    0.4632 O   0  0  0  0  0  0  0  0  0  0  0  0
   -1.4896   -1.2531    1.4455 N   0  0  0  0  0  0  0  0  0  0  0  0
   -1.8154    0.1819    1.4656 C   0  0  0  0  0  0  0  0  0  0  0  0
   -3.3293    0.4865    1.5129 C   0  0  0  0  0  0  0  0  0  0  0  0
   -4.0628   -0.2944    0.5008 N   0  0  0  0  0  0  0  0  0  0  0  0
   -3.6596   -1.7115    0.3354 C   0  0  0  0  0  0  0  0  0  0  0  0
   -2.6505   -2.1449    1.4132 C   0  0  0  0  0  0  0  0  0  0  0  0
   -5.3231    0.0962    0.0575 C   0  0  0  0  0  0  0  0  0  0  0  0
   -5.9093   -0.5002   -1.0747 C   0  0  0  0  0  0  0  0  0  0  0  0
   -7.1701   -0.1197   -1.5507 C   0  0  0  0  0  0  0  0  0  0  0  0
   -7.8827    0.8811   -0.9025 C   0  0  0  0  0  0  0  0  0  0  0  0
   -7.3247    1.4932    0.2128 C   0  0  0  0  0  0  0  0  0  0  0  0
   -8.1972    2.7357    1.0267 Cl  0  0  0  0  0  0  0  0  0  0  0  0
   -6.0640    1.1104    0.6843 C   0  0  0  0  0  0  0  0  0  0  0  0
    1.8745   -0.7894    0.0473 N   0  0  0  0  0  0  0  0  0  0  0  0
    1.8471   -1.4641   -1.2318 C   0  0  0  0  0  0  0  0  0  0  0  0
    9.0309    1.3679   -0.2169 H   0  0  0  0  0  0  0  0  0  0  0  0
    9.1401   -0.1497   -1.1506 H   0  0  0  0  0  0  0  0  0  0  0  0
   10.1929    1.2196   -1.5504 H   0  0  0  0  0  0  0  0  0  0  0  0
    6.8081   -1.0169   -1.6709 H   0  0  0  0  0  0  0  0  0  0  0  0
    4.7483   -1.6230   -0.4817 H   0  0  0  0  0  0  0  0  0  0  0  0
    3.7616    2.5504   -0.0530 H   0  0  0  0  0  0  0  0  0  0  0  0
    5.8360    3.1610   -1.2346 H   0  0  0  0  0  0  0  0  0  0  0  0
    0.8363    0.2071    2.9416 H   0  0  0  0  0  0  0  0  0  0  0  0
   -1.3881    0.6376    0.5641 H   0  0  0  0  0  0  0  0  0  0  0  0
   -1.3384    0.6346    2.3393 H   0  0  0  0  0  0  0  0  0  0  0  0
   -3.7255    0.2525    2.5088 H   0  0  0  0  0  0  0  0  0  0  0  0
   -3.4479    1.5636    1.3457 H   0  0  0  0  0  0  0  0  0  0  0  0
   -3.2080   -1.8332   -0.6565 H   0  0  0  0  0  0  0  0  0  0  0  0
   -4.5284   -2.3776    0.4051 H   0  0  0  0  0  0  0  0  0  0  0  0
   -2.3534   -3.1859    1.2516 H   0  0  0  0  0  0  0  0  0  0  0  0
   -3.1159   -2.0983    2.4054 H   0  0  0  0  0  0  0  0  0  0  0  0
   -5.3738   -1.2673   -1.6290 H   0  0  0  0  0  0  0  0  0  0  0  0
   -7.5852   -0.6030   -2.4314 H   0  0  0  0  0  0  0  0  0  0  0  0
   -8.8603    1.1794   -1.2695 H   0  0  0  0  0  0  0  0  0  0  0  0
   -5.6820    1.6100    1.5687 H   0  0  0  0  0  0  0  0  0  0  0  0
    2.4088   -0.8862   -1.9690 H   0  0  0  0  0  0  0  0  0  0  0  0
    0.8142   -1.5408   -1.5806 H   0  0  0  0  0  0  0  0  0  0  0  0
    2.2855   -2.4565   -1.1045 H   0  0  0  0  0  0  0  0  0  0  0  0
  1  2  1  0
  2  3  1  0
  3  4  2  0
  4  5  1  0
  5  6  2  0
  6  7  1  0
  7  8  2  0
  6  9  1  0
  9 10  2  0
 10 11  1  0
 11 12  2  0
 12 13  1  0
 13 14  2  0
 13 15  1  0
 15 16  1  0
 16 17  1  0
 17 18  1  0
 18 19  1  0
 19 20  1  0
 18 21  1  0
 21 22  2  0
 22 23  1  0
 23 24  2  0
 24 25  1  0
 25 26  1  0
 25 27  2  0
 12 28  1  0
 28 29  1  0
  8  3  1  0
 28  9  1  0
 20 15  1  0
 27 21  1  0
  1 30  1  0
  1 31  1  0
  1 32  1  0
  4 33  1  0
  5 34  1  0
  7 35  1  0
  8 36  1  0
 11 37  1  0
 16 38  1  0
 16 39  1  0
 17 40  1  0
 17 41  1  0
 19 42  1  0
 19 43  1  0
 20 44  1  0
 20 45  1  0
 22 46  1  0
 23 47  1  0
 24 48  1  0
 27 49  1  0
 29 50  1  0
 29 51  1  0
 29 52  1  0
M  END
>  <Unnamed: 0>  (52) 
239

>  <ID>  (52) 
TRAIN_0239

>  <Canonical_Smiles>  (52) 
CSc1ccc(cc1)c2ncc(C(=O)N3CCN(CC3)c4cccc(Cl)c4)n2C

>  <Inhibition>  (52) 
23.3

>  <TDC_conf_true_inhibitor>  (52) 
1

>  <TDC_conf_non_inhibitor>  (52) 
0

>  <split>  (52) 
1

$$$$
52
     RDKit          3D

 52 55  0  0  0  0  0  0  0  0999 V2000
   -2.8940    3.3712    0.7096 N   0  0  0  0  0  0  0  0  0  0  0  0
   -2.6221    2.4788    1.7007 C   0  0  0  0  0  0  0  0  0  0  0  0
   -2.1215    2.8624    2.7541 O   0  0  0  0  0  0  0  0  0  0  0  0
   -2.9775    1.0237    1.4536 C   0  0  1  0  0  0  0  0  0  0  0  0
   -4.4613    0.8062    1.1498 C   0  0  0  0  0  0  0  0  0  0  0  0
   -4.5298   -0.5560    0.4422 C   0  0  1  0  0  0  0  0  0  0  0  0
   -5.5041   -0.5586   -0.7342 C   0  0  0  0  0  0  0  0  0  0  0  0
   -5.4742   -1.8846   -1.4949 C   0  0  0  0  0  0  0  0  0  0  0  0
   -4.0718   -2.4788   -1.6548 C   0  0  0  0  0  0  0  0  0  0  0  0
   -2.9667   -1.4611   -1.3948 C   0  0  0  0  0  0  0  0  0  0  0  0
   -3.0816   -0.8945    0.0237 C   0  0  1  0  0  0  0  0  0  0  0  0
   -2.2848    0.4069    0.2313 C   0  0  2  0  0  0  0  0  0  0  0  0
   -0.8135    0.1652    0.4419 C   0  0  0  0  0  0  0  0  0  0  0  0
    0.1349    0.6322   -0.3873 C   0  0  0  0  0  0  0  0  0  0  0  0
    1.5798    0.4306   -0.2376 C   0  0  0  0  0  0  0  0  0  0  0  0
    2.2061    0.2935    0.9954 C   0  0  0  0  0  0  0  0  0  0  0  0
    3.5934    0.1385    1.0356 C   0  0  0  0  0  0  0  0  0  0  0  0
    4.3398    0.1315   -0.1472 C   0  0  0  0  0  0  0  0  0  0  0  0
    3.6143    0.2914   -1.3275 C   0  0  0  0  0  0  0  0  0  0  0  0
    2.2689    0.4474   -1.3998 N   0  0  0  0  0  0  0  0  0  0  0  0
    5.8010   -0.0285   -0.1445 C   0  0  0  0  0  0  0  0  0  0  0  0
    6.4139   -1.0827    0.5590 C   0  0  0  0  0  0  0  0  0  0  0  0
    7.8042   -1.2409    0.5649 C   0  0  0  0  0  0  0  0  0  0  0  0
    8.6068   -0.3440   -0.1335 C   0  0  0  0  0  0  0  0  0  0  0  0
    8.0128    0.7002   -0.8296 C   0  0  0  0  0  0  0  0  0  0  0  0
    8.7834    1.5665   -1.5005 F   0  0  0  0  0  0  0  0  0  0  0  0
    6.6301    0.8645   -0.8419 C   0  0  0  0  0  0  0  0  0  0  0  0
   -2.5880    4.3239    0.8620 H   0  0  0  0  0  0  0  0  0  0  0  0
   -3.1347    3.0973   -0.2317 H   0  0  0  0  0  0  0  0  0  0  0  0
   -2.7145    0.4619    2.3613 H   0  0  0  0  0  0  0  0  0  0  0  0
   -5.0569    0.8069    2.0695 H   0  0  0  0  0  0  0  0  0  0  0  0
   -4.8654    1.6014    0.5127 H   0  0  0  0  0  0  0  0  0  0  0  0
   -4.8641   -1.3117    1.1662 H   0  0  0  0  0  0  0  0  0  0  0  0
   -5.2487    0.2531   -1.4280 H   0  0  0  0  0  0  0  0  0  0  0  0
   -6.5239   -0.3571   -0.3859 H   0  0  0  0  0  0  0  0  0  0  0  0
   -5.9239   -1.7319   -2.4835 H   0  0  0  0  0  0  0  0  0  0  0  0
   -6.1105   -2.6172   -0.9833 H   0  0  0  0  0  0  0  0  0  0  0  0
   -3.9567   -3.3166   -0.9552 H   0  0  0  0  0  0  0  0  0  0  0  0
   -3.9641   -2.9019   -2.6602 H   0  0  0  0  0  0  0  0  0  0  0  0
   -3.0304   -0.6591   -2.1408 H   0  0  0  0  0  0  0  0  0  0  0  0
   -1.9870   -1.9345   -1.5276 H   0  0  0  0  0  0  0  0  0  0  0  0
   -2.7121   -1.6601    0.7226 H   0  0  0  0  0  0  0  0  0  0  0  0
   -2.4277    1.0562   -0.6431 H   0  0  0  0  0  0  0  0  0  0  0  0
   -0.5393   -0.4258    1.3134 H   0  0  0  0  0  0  0  0  0  0  0  0
   -0.1396    1.1900   -1.2794 H   0  0  0  0  0  0  0  0  0  0  0  0
    1.6416    0.3233    1.9212 H   0  0  0  0  0  0  0  0  0  0  0  0
    4.0855    0.0431    2.0009 H   0  0  0  0  0  0  0  0  0  0  0  0
    4.1113    0.2911   -2.2950 H   0  0  0  0  0  0  0  0  0  0  0  0
    5.8052   -1.8038    1.1030 H   0  0  0  0  0  0  0  0  0  0  0  0
    8.2555   -2.0648    1.1121 H   0  0  0  0  0  0  0  0  0  0  0  0
    9.6867   -0.4505   -0.1401 H   0  0  0  0  0  0  0  0  0  0  0  0
    6.2151    1.7056   -1.3908 H   0  0  0  0  0  0  0  0  0  0  0  0
  1  2  1  0
  2  3  2  0
  2  4  1  0
  4  5  1  0
  5  6  1  0
  6  7  1  0
  7  8  1  0
  8  9  1  0
  9 10  1  0
 10 11  1  0
 11 12  1  0
 12 13  1  0
 13 14  2  0
 14 15  1  0
 15 16  2  0
 16 17  1  0
 17 18  2  0
 18 19  1  0
 19 20  2  0
 18 21  1  0
 21 22  2  0
 22 23  1  0
 23 24  2  0
 24 25  1  0
 25 26  1  0
 25 27  2  0
 12  4  1  0
 11  6  1  0
 20 15  1  0
 27 21  1  0
  1 28  1  0
  1 29  1  0
  4 30  1  1
  5 31  1  0
  5 32  1  0
  6 33  1  1
  7 34  1  0
  7 35  1  0
  8 36  1  0
  8 37  1  0
  9 38  1  0
  9 39  1  0
 10 40  1  0
 10 41  1  0
 11 42  1  1
 12 43  1  6
 13 44  1  0
 14 45  1  0
 16 46  1  0
 17 47  1  0
 19 48  1  0
 22 49  1  0
 23 50  1  0
 24 51  1  0
 27 52  1  0
M  END
>  <Unnamed: 0>  (53) 
241

>  <ID>  (53) 
TRAIN_0241

>  <Canonical_Smiles>  (53) 
NC(=O)[C@H]1C[C@H]2CCCC[C@H]2[C@@H]1\C=C\c3ccc(cn3)c4cccc(F)c4

>  <Inhibition>  (53) 
0.0

>  <TDC_conf_true_inhibitor>  (53) 
0

>  <TDC_conf_non_inhibitor>  (53) 
1

>  <split>  (53) 
1

$$$$
53
     RDKit          3D

 35 36  0  0  0  0  0  0  0  0999 V2000
   -1.9225    2.7850    1.3230 C   0  0  0  0  0  0  0  0  0  0  0  0
   -1.4149    1.9942    0.1154 C   0  0  0  0  0  0  0  0  0  0  0  0
    0.0138    2.4050   -0.2125 C   0  0  0  0  0  0  0  0  0  0  0  0
    1.0095    1.5390   -0.4859 C   0  0  0  0  0  0  0  0  0  0  0  0
    0.8356    0.0242   -0.5748 C   0  0  0  0  0  0  0  0  0  0  0  0
    1.5360   -0.6834    0.6008 C   0  0  0  0  0  0  0  0  0  0  0  0
    2.9440   -0.3749    0.6426 O   0  0  0  0  0  0  0  0  0  0  0  0
    3.7373   -1.0849   -0.2041 C   0  0  0  0  0  0  0  0  0  0  0  0
    3.3537   -1.9286   -0.9999 O   0  0  0  0  0  0  0  0  0  0  0  0
    5.1669   -0.6726   -0.0308 C   0  0  0  0  0  0  0  0  0  0  0  0
   -0.6600   -0.2598   -0.6778 C   0  0  0  0  0  0  0  0  0  0  0  0
   -1.4596    0.4924    0.3828 C   0  0  0  0  0  0  0  0  0  0  0  0
   -2.7796   -0.2272    0.2916 C   0  0  0  0  0  0  0  0  0  0  0  0
   -3.8758    0.2391    0.5478 O   0  0  0  0  0  0  0  0  0  0  0  0
   -2.4842   -1.5225   -0.0635 N   0  0  0  0  0  0  0  0  0  0  0  0
   -3.4479   -2.5952   -0.0695 C   0  0  0  0  0  0  0  0  0  0  0  0
   -1.1988   -1.6553   -0.5339 C   0  0  0  0  0  0  0  0  0  0  0  0
   -0.6312   -2.6826   -0.8588 O   0  0  0  0  0  0  0  0  0  0  0  0
   -2.9587    2.5245    1.5595 H   0  0  0  0  0  0  0  0  0  0  0  0
   -1.8918    3.8624    1.1252 H   0  0  0  0  0  0  0  0  0  0  0  0
   -1.3143    2.5926    2.2143 H   0  0  0  0  0  0  0  0  0  0  0  0
   -2.0492    2.2442   -0.7446 H   0  0  0  0  0  0  0  0  0  0  0  0
    0.2313    3.4724   -0.2222 H   0  0  0  0  0  0  0  0  0  0  0  0
    2.0065    1.9261   -0.6913 H   0  0  0  0  0  0  0  0  0  0  0  0
    1.3107   -0.3000   -1.5091 H   0  0  0  0  0  0  0  0  0  0  0  0
    1.4012   -1.7702    0.5629 H   0  0  0  0  0  0  0  0  0  0  0  0
    1.1239   -0.3504    1.5595 H   0  0  0  0  0  0  0  0  0  0  0  0
    5.7985   -1.2650   -0.6990 H   0  0  0  0  0  0  0  0  0  0  0  0
    5.4837   -0.8559    0.9990 H   0  0  0  0  0  0  0  0  0  0  0  0
    5.2812    0.3836   -0.2870 H   0  0  0  0  0  0  0  0  0  0  0  0
   -0.9923    0.0625   -1.6797 H   0  0  0  0  0  0  0  0  0  0  0  0
   -1.0716    0.2789    1.3899 H   0  0  0  0  0  0  0  0  0  0  0  0
   -2.9517   -3.5459    0.1441 H   0  0  0  0  0  0  0  0  0  0  0  0
   -3.8970   -2.6471   -1.0657 H   0  0  0  0  0  0  0  0  0  0  0  0
   -4.2324   -2.4046    0.6677 H   0  0  0  0  0  0  0  0  0  0  0  0
  1  2  1  0
  2  3  1  0
  3  4  2  0
  4  5  1  0
  5  6  1  0
  6  7  1  0
  7  8  1  0
  8  9  2  0
  8 10  1  0
  5 11  1  0
 11 12  1  0
 12 13  1  0
 13 14  2  0
 13 15  1  0
 15 16  1  0
 15 17  1  0
 17 18  2  0
 12  2  1  0
 17 11  1  0
  1 19  1  0
  1 20  1  0
  1 21  1  0
  2 22  1  0
  3 23  1  0
  4 24  1  0
  5 25  1  0
  6 26  1  0
  6 27  1  0
 10 28  1  0
 10 29  1  0
 10 30  1  0
 11 31  1  0
 12 32  1  0
 16 33  1  0
 16 34  1  0
 16 35  1  0
M  END
>  <Unnamed: 0>  (54) 
243

>  <ID>  (54) 
TRAIN_0243

>  <Canonical_Smiles>  (54) 
CC1C=CC(COC(=O)C)C2C1C(=O)N(C)C2=O

>  <Inhibition>  (54) 
0.0

>  <TDC_conf_true_inhibitor>  (54) 
0

>  <TDC_conf_non_inhibitor>  (54) 
1

>  <split>  (54) 
1

$$$$
54
     RDKit          3D

 49 50  0  0  0  0  0  0  0  0999 V2000
    5.8938   -0.5803   -1.6438 C   0  0  0  0  0  0  0  0  0  0  0  0
    5.3872    0.4533   -0.6320 C   0  0  0  0  0  0  0  0  0  0  0  0
    6.3675    0.5024    0.5502 C   0  0  0  0  0  0  0  0  0  0  0  0
    5.2884    1.8553   -1.2430 C   0  0  0  0  0  0  0  0  0  0  0  0
    4.1262    0.0431   -0.0445 O   0  0  0  0  0  0  0  0  0  0  0  0
    3.0127   -0.1062   -0.8054 C   0  0  0  0  0  0  0  0  0  0  0  0
    2.9663    0.0780   -2.0148 O   0  0  0  0  0  0  0  0  0  0  0  0
    1.9174   -0.4921   -0.0526 N   0  0  0  0  0  0  0  0  0  0  0  0
    1.9935   -0.7443    1.3855 C   0  0  0  0  0  0  0  0  0  0  0  0
    0.8848   -1.6815    1.8468 C   0  0  0  0  0  0  0  0  0  0  0  0
   -0.4997   -1.1091    1.5360 C   0  0  0  0  0  0  0  0  0  0  0  0
   -0.9195   -0.3357    2.6666 O   0  0  0  0  0  0  0  0  0  0  0  0
   -0.5372   -0.2382    0.2507 C   0  0  0  0  0  0  0  0  0  0  0  0
    0.6143   -0.6018   -0.6964 C   0  0  0  0  0  0  0  0  0  0  0  0
   -1.8316   -0.3326   -0.4384 N   0  0  0  0  0  0  0  0  0  0  0  0
   -2.9794    0.1662    0.1415 C   0  0  0  0  0  0  0  0  0  0  0  0
   -2.9678    0.7010    1.2427 O   0  0  0  0  0  0  0  0  0  0  0  0
   -4.0670   -0.0328   -0.6703 N   0  0  0  0  0  0  0  0  0  0  0  0
   -5.4172    0.2698   -0.3938 C   0  0  0  0  0  0  0  0  0  0  0  0
   -5.8904    0.6981    0.8467 C   0  0  0  0  0  0  0  0  0  0  0  0
   -7.2534    0.9671    1.0255 C   0  0  0  0  0  0  0  0  0  0  0  0
   -8.1524    0.8072   -0.0300 C   0  0  0  0  0  0  0  0  0  0  0  0
   -7.6911    0.3751   -1.2705 C   0  0  0  0  0  0  0  0  0  0  0  0
   -6.3352    0.1102   -1.4402 C   0  0  0  0  0  0  0  0  0  0  0  0
   -5.9013   -0.3099   -2.6401 F   0  0  0  0  0  0  0  0  0  0  0  0
    6.9185   -0.3583   -1.9609 H   0  0  0  0  0  0  0  0  0  0  0  0
    5.2729   -0.6106   -2.5442 H   0  0  0  0  0  0  0  0  0  0  0  0
    5.8725   -1.5880   -1.2137 H   0  0  0  0  0  0  0  0  0  0  0  0
    7.3718    0.8039    0.2344 H   0  0  0  0  0  0  0  0  0  0  0  0
    6.0196    1.2056    1.3159 H   0  0  0  0  0  0  0  0  0  0  0  0
    6.4375   -0.4764    1.0392 H   0  0  0  0  0  0  0  0  0  0  0  0
    4.6563    1.8693   -2.1359 H   0  0  0  0  0  0  0  0  0  0  0  0
    4.8421    2.5589   -0.5313 H   0  0  0  0  0  0  0  0  0  0  0  0
    6.2743    2.2330   -1.5347 H   0  0  0  0  0  0  0  0  0  0  0  0
    1.9223    0.2248    1.8931 H   0  0  0  0  0  0  0  0  0  0  0  0
    2.9677   -1.1785    1.6343 H   0  0  0  0  0  0  0  0  0  0  0  0
    0.9991   -2.6400    1.3244 H   0  0  0  0  0  0  0  0  0  0  0  0
    0.9923   -1.8775    2.9198 H   0  0  0  0  0  0  0  0  0  0  0  0
   -1.2057   -1.9447    1.4570 H   0  0  0  0  0  0  0  0  0  0  0  0
   -1.7479    0.1271    2.4038 H   0  0  0  0  0  0  0  0  0  0  0  0
   -0.4258    0.8158    0.5418 H   0  0  0  0  0  0  0  0  0  0  0  0
    0.5797    0.0348   -1.5884 H   0  0  0  0  0  0  0  0  0  0  0  0
    0.5118   -1.6372   -1.0457 H   0  0  0  0  0  0  0  0  0  0  0  0
   -1.9728   -1.1317   -1.0406 H   0  0  0  0  0  0  0  0  0  0  0  0
   -3.8742   -0.2888   -1.6302 H   0  0  0  0  0  0  0  0  0  0  0  0
   -5.2274    0.8309    1.6961 H   0  0  0  0  0  0  0  0  0  0  0  0
   -7.6108    1.3033    1.9967 H   0  0  0  0  0  0  0  0  0  0  0  0
   -9.2085    1.0190    0.1174 H   0  0  0  0  0  0  0  0  0  0  0  0
   -8.3745    0.2433   -2.1029 H   0  0  0  0  0  0  0  0  0  0  0  0
  1  2  1  0
  2  3  1  0
  2  4  1  0
  2  5  1  0
  5  6  1  0
  6  7  2  0
  6  8  1  0
  8  9  1  0
  9 10  1  0
 10 11  1  0
 11 12  1  0
 11 13  1  0
 13 14  1  0
 13 15  1  0
 15 16  1  0
 16 17  2  0
 16 18  1  0
 18 19  1  0
 19 20  2  0
 20 21  1  0
 21 22  2  0
 22 23  1  0
 23 24  2  0
 24 25  1  0
 14  8  1  0
 24 19  1  0
  1 26  1  0
  1 27  1  0
  1 28  1  0
  3 29  1  0
  3 30  1  0
  3 31  1  0
  4 32  1  0
  4 33  1  0
  4 34  1  0
  9 35  1  0
  9 36  1  0
 10 37  1  0
 10 38  1  0
 11 39  1  0
 12 40  1  0
 13 41  1  0
 14 42  1  0
 14 43  1  0
 15 44  1  0
 18 45  1  0
 20 46  1  0
 21 47  1  0
 22 48  1  0
 23 49  1  0
M  END
>  <Unnamed: 0>  (55) 
257

>  <ID>  (55) 
TRAIN_0257

>  <Canonical_Smiles>  (55) 
CC(C)(C)OC(=O)N1CCC(O)C(C1)NC(=O)Nc2ccccc2F

>  <Inhibition>  (55) 
0.0

>  <TDC_conf_true_inhibitor>  (55) 
0

>  <TDC_conf_non_inhibitor>  (55) 
1

>  <split>  (55) 
1

$$$$
55
     RDKit          3D

 39 40  0  0  0  0  0  0  0  0999 V2000
    0.0000    0.0000    0.0000 K   0  0  0  0  0 15  0  0  0  0  0  0
   -4.3719    1.1944    0.3248 C   0  0  0  0  0  0  0  0  0  0  0  0
   -3.8895   -0.1727   -0.1724 C   0  0  0  0  0  0  0  0  0  0  0  0
   -4.4606   -1.3232    0.6637 C   0  0  0  0  0  0  0  0  0  0  0  0
   -4.3470   -0.3526   -1.6284 C   0  0  0  0  0  0  0  0  0  0  0  0
   -2.4423   -0.2324   -0.2347 O   0  0  0  0  0  0  0  0  0  0  0  0
   -1.6835   -0.1040    0.8843 C   0  0  0  0  0  0  0  0  0  0  0  0
   -2.1409    0.0569    2.0090 O   0  0  0  0  0  0  0  0  0  0  0  0
   -0.3283   -0.1773    0.6125 N   0  0  0  0  0  0  0  0  0  0  0  0
    0.1918   -0.6420   -0.6849 C   0  0  0  0  0  0  0  0  0  0  0  0
    1.4845    0.0802   -1.0958 C   0  0  0  0  0  0  0  0  0  0  0  0
    2.4388    0.1362    0.0514 C   0  0  0  0  0  0  0  0  0  0  0  0
    1.9878    0.0023    1.3510 C   0  0  0  0  0  0  0  0  0  0  0  0
    0.5711   -0.2296    1.7707 C   0  0  0  0  0  0  0  0  0  0  0  0
    3.2522    0.1002    2.4908 S   0  0  0  0  0  0  0  0  0  0  0  0
    4.4234    0.3350    1.2682 C   0  0  0  0  0  0  0  0  0  0  0  0
    5.7415    0.4917    1.5626 N   0  0  0  0  0  0  0  0  0  0  0  0
    6.4994    0.6646    0.5269 C   0  0  0  0  0  0  0  0  0  0  0  0
    8.2536    0.8772    0.8077 S   0  0  0  0  0  1  0  0  0  0  0  0
    6.0516    0.6946   -0.7654 N   0  0  0  0  0  0  0  0  0  0  0  0
    4.7370    0.5407   -1.1236 C   0  0  0  0  0  0  0  0  0  0  0  0
    4.3497    0.5684   -2.2895 O   0  0  0  0  0  0  0  0  0  0  0  0
    3.8523    0.3397    0.0097 C   0  0  0  0  0  0  0  0  0  0  0  0
   -3.8835    2.0040   -0.2292 H   0  0  0  0  0  0  0  0  0  0  0  0
   -4.1378    1.3521    1.3818 H   0  0  0  0  0  0  0  0  0  0  0  0
   -5.4564    1.2995    0.2114 H   0  0  0  0  0  0  0  0  0  0  0  0
   -4.2287   -1.2116    1.7270 H   0  0  0  0  0  0  0  0  0  0  0  0
   -5.5507   -1.3796    0.5715 H   0  0  0  0  0  0  0  0  0  0  0  0
   -4.0340   -2.2819    0.3481 H   0  0  0  0  0  0  0  0  0  0  0  0
   -3.9274    0.4325   -2.2684 H   0  0  0  0  0  0  0  0  0  0  0  0
   -3.9887   -1.3059   -2.0344 H   0  0  0  0  0  0  0  0  0  0  0  0
   -5.4380   -0.3263   -1.7188 H   0  0  0  0  0  0  0  0  0  0  0  0
    0.3720   -1.7198   -0.5816 H   0  0  0  0  0  0  0  0  0  0  0  0
   -0.5498   -0.5163   -1.4795 H   0  0  0  0  0  0  0  0  0  0  0  0
    1.9264   -0.4355   -1.9545 H   0  0  0  0  0  0  0  0  0  0  0  0
    1.2489    1.1064   -1.4032 H   0  0  0  0  0  0  0  0  0  0  0  0
    0.2554    0.5187    2.5067 H   0  0  0  0  0  0  0  0  0  0  0  0
    0.4672   -1.2237    2.2220 H   0  0  0  0  0  0  0  0  0  0  0  0
    6.7544    0.8389   -1.4700 H   0  0  0  0  0  0  0  0  0  0  0  0
  2  3  1  0
  3  4  1  0
  3  5  1  0
  3  6  1  0
  6  7  1  0
  7  8  2  0
  7  9  1  0
  9 10  1  0
 10 11  1  0
 11 12  1  0
 12 13  2  0
 13 14  1  0
 13 15  1  0
 15 16  1  0
 16 17  1  0
 17 18  2  0
 18 19  1  0
 18 20  1  0
 20 21  1  0
 21 22  2  0
 21 23  1  0
 14  9  1  0
 23 12  1  0
 23 16  2  0
  2 24  1  0
  2 25  1  0
  2 26  1  0
  4 27  1  0
  4 28  1  0
  4 29  1  0
  5 30  1  0
  5 31  1  0
  5 32  1  0
 10 33  1  0
 10 34  1  0
 11 35  1  0
 11 36  1  0
 14 37  1  0
 14 38  1  0
 20 39  1  0
M  CHG  2   1   1  19  -1
M  END
>  <Unnamed: 0>  (56) 
280

>  <ID>  (56) 
TRAIN_0280

>  <Canonical_Smiles>  (56) 
[K+].CC(C)(C)OC(=O)N1CCc2c(C1)sc3N=C([S-])NC(=O)c23

>  <Inhibition>  (56) 
24.6

>  <TDC_conf_true_inhibitor>  (56) 
0

>  <TDC_conf_non_inhibitor>  (56) 
1

>  <split>  (56) 
1

$$$$
56
     RDKit          3D

 39 41  0  0  0  0  0  0  0  0999 V2000
    0.2513    4.0595   -3.2613 F   0  0  0  0  0  0  0  0  0  0  0  0
    0.5402    3.4236   -2.1185 C   0  0  0  0  0  0  0  0  0  0  0  0
    1.4409    3.9980   -1.2283 C   0  0  0  0  0  0  0  0  0  0  0  0
    1.7511    3.3361   -0.0422 C   0  0  0  0  0  0  0  0  0  0  0  0
    1.1508    2.1074    0.2453 C   0  0  0  0  0  0  0  0  0  0  0  0
    0.2301    1.5439   -0.6490 C   0  0  0  0  0  0  0  0  0  0  0  0
   -0.0613    2.2011   -1.8442 C   0  0  0  0  0  0  0  0  0  0  0  0
   -0.3649    0.2550   -0.4060 N   0  0  0  0  0  0  0  0  0  0  0  0
   -0.9098    0.0047    0.9559 C   0  0  0  0  0  0  0  0  0  0  0  0
   -2.2447   -0.7074    0.9667 C   0  0  0  0  0  0  0  0  0  0  0  0
   -3.2408   -0.3170    0.0507 C   0  0  0  0  0  0  0  0  0  0  0  0
   -4.4948   -0.9305    0.0442 C   0  0  0  0  0  0  0  0  0  0  0  0
   -4.7816   -1.9372    0.9604 C   0  0  0  0  0  0  0  0  0  0  0  0
   -3.8155   -2.3262    1.8867 C   0  0  0  0  0  0  0  0  0  0  0  0
   -2.5574   -1.7135    1.8954 C   0  0  0  0  0  0  0  0  0  0  0  0
   -1.4306   -2.2387    3.0972 Cl  0  0  0  0  0  0  0  0  0  0  0  0
    0.3795   -1.0776   -1.1892 S   0  0  0  0  0  6  0  0  0  0  0  0
   -0.3534   -2.2838   -0.8660 O   0  0  0  0  0  0  0  0  0  0  0  0
    0.6394   -0.7279   -2.5715 O   0  0  0  0  0  0  0  0  0  0  0  0
    1.9605   -1.2103   -0.3860 C   0  0  0  0  0  0  0  0  0  0  0  0
    2.1091   -2.0531    0.7133 C   0  0  0  0  0  0  0  0  0  0  0  0
    3.3627   -2.1334    1.2868 C   0  0  0  0  0  0  0  0  0  0  0  0
    4.4377   -1.4518    0.8330 N   0  0  0  0  0  0  0  0  0  0  0  0
    4.2666   -0.6772   -0.2608 C   0  0  0  0  0  0  0  0  0  0  0  0
    3.0569   -0.5278   -0.9092 C   0  0  0  0  0  0  0  0  0  0  0  0
    1.8976    4.9533   -1.4689 H   0  0  0  0  0  0  0  0  0  0  0  0
    2.4621    3.7730    0.6551 H   0  0  0  0  0  0  0  0  0  0  0  0
    1.4192    1.5991    1.1680 H   0  0  0  0  0  0  0  0  0  0  0  0
   -0.7485    1.7717   -2.5668 H   0  0  0  0  0  0  0  0  0  0  0  0
   -1.0781    0.9599    1.4720 H   0  0  0  0  0  0  0  0  0  0  0  0
   -0.1508   -0.5156    1.5445 H   0  0  0  0  0  0  0  0  0  0  0  0
   -3.0393    0.4683   -0.6763 H   0  0  0  0  0  0  0  0  0  0  0  0
   -5.2451   -0.6237   -0.6807 H   0  0  0  0  0  0  0  0  0  0  0  0
   -5.7558   -2.4193    0.9537 H   0  0  0  0  0  0  0  0  0  0  0  0
   -4.0496   -3.1111    2.6017 H   0  0  0  0  0  0  0  0  0  0  0  0
    1.2839   -2.6355    1.1096 H   0  0  0  0  0  0  0  0  0  0  0  0
    3.5470   -2.7688    2.1490 H   0  0  0  0  0  0  0  0  0  0  0  0
    5.1597   -0.1676   -0.6123 H   0  0  0  0  0  0  0  0  0  0  0  0
    2.9759    0.1007   -1.7901 H   0  0  0  0  0  0  0  0  0  0  0  0
  1  2  1  0
  2  3  2  0
  3  4  1  0
  4  5  2  0
  5  6  1  0
  6  7  2  0
  6  8  1  0
  8  9  1  0
  9 10  1  0
 10 11  2  0
 11 12  1  0
 12 13  2  0
 13 14  1  0
 14 15  2  0
 15 16  1  0
  8 17  1  0
 17 18  2  0
 17 19  2  0
 17 20  1  0
 20 21  2  0
 21 22  1  0
 22 23  2  0
 23 24  1  0
 24 25  2  0
  7  2  1  0
 15 10  1  0
 25 20  1  0
  3 26  1  0
  4 27  1  0
  5 28  1  0
  7 29  1  0
  9 30  1  0
  9 31  1  0
 11 32  1  0
 12 33  1  0
 13 34  1  0
 14 35  1  0
 21 36  1  0
 22 37  1  0
 24 38  1  0
 25 39  1  0
M  END
>  <Unnamed: 0>  (57) 
281

>  <ID>  (57) 
TRAIN_0281

>  <Canonical_Smiles>  (57) 
Fc1cccc(c1)N(Cc2ccccc2Cl)S(=O)(=O)c3ccncc3

>  <Inhibition>  (57) 
59.3

>  <TDC_conf_true_inhibitor>  (57) 
1

>  <TDC_conf_non_inhibitor>  (57) 
0

>  <split>  (57) 
1

$$$$
57
     RDKit          3D

 31 32  0  0  0  0  0  0  0  0999 V2000
    1.0137   -2.5055   -0.1466 N   0  0  0  0  0  0  0  0  0  0  0  0
    0.9321   -1.3611    0.7843 C   0  0  0  0  0  0  0  0  0  0  0  0
   -0.5249   -1.1051    1.3076 C   0  0  0  0  0  0  0  0  0  0  0  0
   -0.5078   -0.2455    2.4572 O   0  0  0  0  0  0  0  0  0  0  0  0
   -1.5174   -0.5933    0.2759 C   0  0  0  0  0  0  0  0  0  0  0  0
   -1.6526    0.7793    0.0080 C   0  0  0  0  0  0  0  0  0  0  0  0
   -2.5583    1.2325   -0.9538 C   0  0  0  0  0  0  0  0  0  0  0  0
   -3.3381    0.3167   -1.6550 C   0  0  0  0  0  0  0  0  0  0  0  0
   -4.4519    0.8733   -2.8419 Cl  0  0  0  0  0  0  0  0  0  0  0  0
   -3.2193   -1.0480   -1.4034 C   0  0  0  0  0  0  0  0  0  0  0  0
   -2.3121   -1.5012   -0.4424 C   0  0  0  0  0  0  0  0  0  0  0  0
    1.6227   -0.1170    0.2275 C   0  0  0  0  0  0  0  0  0  0  0  0
    2.3357    0.7172    1.1071 C   0  0  0  0  0  0  0  0  0  0  0  0
    2.9697    1.8742    0.6471 C   0  0  0  0  0  0  0  0  0  0  0  0
    2.8935    2.2141   -0.6999 C   0  0  0  0  0  0  0  0  0  0  0  0
    3.6687    3.6406   -1.2685 Cl  0  0  0  0  0  0  0  0  0  0  0  0
    2.1864    1.4092   -1.5885 C   0  0  0  0  0  0  0  0  0  0  0  0
    1.5527    0.2512   -1.1276 C   0  0  0  0  0  0  0  0  0  0  0  0
    0.4667   -2.3002   -0.9798 H   0  0  0  0  0  0  0  0  0  0  0  0
    1.9823   -2.5990   -0.4522 H   0  0  0  0  0  0  0  0  0  0  0  0
    1.5207   -1.6708    1.6593 H   0  0  0  0  0  0  0  0  0  0  0  0
   -0.9073   -2.0607    1.6915 H   0  0  0  0  0  0  0  0  0  0  0  0
   -1.4290    0.0221    2.6193 H   0  0  0  0  0  0  0  0  0  0  0  0
   -1.0393    1.5055    0.5406 H   0  0  0  0  0  0  0  0  0  0  0  0
   -2.6456    2.2976   -1.1515 H   0  0  0  0  0  0  0  0  0  0  0  0
   -3.8279   -1.7633   -1.9504 H   0  0  0  0  0  0  0  0  0  0  0  0
   -2.2276   -2.5713   -0.2580 H   0  0  0  0  0  0  0  0  0  0  0  0
    2.3909    0.4724    2.1672 H   0  0  0  0  0  0  0  0  0  0  0  0
    3.5142    2.5037    1.3456 H   0  0  0  0  0  0  0  0  0  0  0  0
    2.1182    1.6782   -2.6392 H   0  0  0  0  0  0  0  0  0  0  0  0
    0.9911   -0.3458   -1.8416 H   0  0  0  0  0  0  0  0  0  0  0  0
  1  2  1  0
  2  3  1  0
  3  4  1  0
  3  5  1  0
  5  6  2  0
  6  7  1  0
  7  8  2  0
  8  9  1  0
  8 10  1  0
 10 11  2  0
  2 12  1  0
 12 13  2  0
 13 14  1  0
 14 15  2  0
 15 16  1  0
 15 17  1  0
 17 18  2  0
 11  5  1  0
 18 12  1  0
  1 19  1  0
  1 20  1  0
  2 21  1  0
  3 22  1  0
  4 23  1  0
  6 24  1  0
  7 25  1  0
 10 26  1  0
 11 27  1  0
 13 28  1  0
 14 29  1  0
 17 30  1  0
 18 31  1  0
M  END
>  <Unnamed: 0>  (58) 
286

>  <ID>  (58) 
TRAIN_0286

>  <Canonical_Smiles>  (58) 
NC(C(O)c1ccc(Cl)cc1)c2ccc(Cl)cc2

>  <Inhibition>  (58) 
28.7

>  <TDC_conf_true_inhibitor>  (58) 
1

>  <TDC_conf_non_inhibitor>  (58) 
0

>  <split>  (58) 
1

$$$$
58
     RDKit          3D

 38 38  0  0  0  0  0  0  0  0999 V2000
    0.6828    0.0000    0.0000 Cl  0  0  0  0  0  0  0  0  0  0  0  0
   -1.5769   -2.1377    1.7357 C   0  0  0  0  0  0  0  0  0  0  0  0
   -1.3904   -2.1249    0.2529 C   0  0  1  0  0  0  0  0  0  0  0  0
   -2.6857   -2.0826   -0.4407 N   0  0  0  0  0  0  0  0  0  0  0  0
   -0.4614   -1.0677   -0.2909 C   0  0  0  0  0  0  0  0  0  0  0  0
    0.8907   -1.2460    0.2739 C   0  0  0  0  0  0  0  0  0  0  0  0
    1.9328   -0.3059   -0.1716 C   0  0  0  0  0  0  0  0  0  0  0  0
    2.2034    0.8098    0.5829 C   0  0  0  0  0  0  0  0  0  0  0  0
    3.1633    1.7387    0.2081 C   0  0  0  0  0  0  0  0  0  0  0  0
    3.8624    1.5357   -0.9498 C   0  0  0  0  0  0  0  0  0  0  0  0
    5.0727    2.6808   -1.4486 Cl  0  0  0  0  0  0  0  0  0  0  0  0
    3.6103    0.4255   -1.7229 C   0  0  0  0  0  0  0  0  0  0  0  0
    2.6589   -0.4757   -1.3323 C   0  0  0  0  0  0  0  0  0  0  0  0
   -1.0452    0.2926   -0.0990 C   0  0  0  0  0  0  0  0  0  0  0  0
   -1.0913    0.8694    1.1400 C   0  0  0  0  0  0  0  0  0  0  0  0
   -1.6375    2.1173    1.3402 C   0  0  0  0  0  0  0  0  0  0  0  0
   -2.1450    2.7859    0.2514 C   0  0  0  0  0  0  0  0  0  0  0  0
   -2.1012    2.2105   -0.9990 C   0  0  0  0  0  0  0  0  0  0  0  0
   -1.5574    0.9662   -1.2018 C   0  0  0  0  0  0  0  0  0  0  0  0
   -0.6828    0.0000    0.0000 H   0  0  0  0  0  0  0  0  0  0  0  0
   -1.9645   -3.1406    2.0838 H   0  0  0  0  0  0  0  0  0  0  0  0
   -2.3132   -1.3385    2.0307 H   0  0  0  0  0  0  0  0  0  0  0  0
   -0.6766   -1.9749    2.3411 H   0  0  0  0  0  0  0  0  0  0  0  0
   -1.0015   -3.1593   -0.0074 H   0  0  0  0  0  0  0  0  0  0  0  0
   -3.4057   -2.5785    0.1261 H   0  0  0  0  0  0  0  0  0  0  0  0
   -2.6391   -2.5939   -1.3542 H   0  0  0  0  0  0  0  0  0  0  0  0
   -0.4853   -1.2438   -1.4078 H   0  0  0  0  0  0  0  0  0  0  0  0
    0.8418   -1.2203    1.3809 H   0  0  0  0  0  0  0  0  0  0  0  0
    1.2543   -2.2710   -0.0157 H   0  0  0  0  0  0  0  0  0  0  0  0
    1.6973    1.0263    1.5159 H   0  0  0  0  0  0  0  0  0  0  0  0
    3.3321    2.5959    0.8403 H   0  0  0  0  0  0  0  0  0  0  0  0
    4.1606    0.2642   -2.6355 H   0  0  0  0  0  0  0  0  0  0  0  0
    2.4665   -1.3296   -1.9291 H   0  0  0  0  0  0  0  0  0  0  0  0
   -0.6884    0.3758    2.0364 H   0  0  0  0  0  0  0  0  0  0  0  0
   -1.6731    2.5746    2.3297 H   0  0  0  0  0  0  0  0  0  0  0  0
   -2.5727    3.7520    0.3799 H   0  0  0  0  0  0  0  0  0  0  0  0
   -2.5070    2.7517   -1.8528 H   0  0  0  0  0  0  0  0  0  0  0  0
   -1.5282    0.5177   -2.2039 H   0  0  0  0  0  0  0  0  0  0  0  0
  2  3  1  0
  3  4  1  0
  3  5  1  0
  5  6  1  0
  6  7  1  0
  7  8  2  0
  8  9  1  0
  9 10  2  0
 10 11  1  0
 10 12  1  0
 12 13  2  0
  5 14  1  0
 14 15  2  0
 15 16  1  0
 16 17  2  0
 17 18  1  0
 18 19  2  0
 13  7  1  0
 19 14  1  0
  1 20  1  0
  2 21  1  0
  2 22  1  0
  2 23  1  0
  3 24  1  6
  4 25  1  0
  4 26  1  0
  5 27  1  0
  6 28  1  0
  6 29  1  0
  8 30  1  0
  9 31  1  0
 12 32  1  0
 13 33  1  0
 15 34  1  0
 16 35  1  0
 17 36  1  0
 18 37  1  0
 19 38  1  0
M  END
>  <Unnamed: 0>  (59) 
348

>  <ID>  (59) 
TRAIN_0348

>  <Canonical_Smiles>  (59) 
Cl.C[C@@H](N)C(Cc1ccc(Cl)cc1)c2ccccc2

>  <Inhibition>  (59) 
53.8

>  <TDC_conf_true_inhibitor>  (59) 
1

>  <TDC_conf_non_inhibitor>  (59) 
0

>  <split>  (59) 
1

$$$$
59
     RDKit          3D

 47 49  0  0  0  0  0  0  0  0999 V2000
    4.3042    1.6047   -0.4899 C   0  0  0  0  0  0  0  0  0  0  0  0
    3.4698    0.7604    0.4853 C   0  0  0  0  0  0  0  0  0  0  0  0
    3.0983    1.6298    1.6914 C   0  0  0  0  0  0  0  0  0  0  0  0
    4.2887   -0.4689    0.8931 C   0  0  0  0  0  0  0  0  0  0  0  0
    2.2931    0.3827   -0.2709 O   0  0  0  0  0  0  0  0  0  0  0  0
    1.3107   -0.3807    0.2679 C   0  0  0  0  0  0  0  0  0  0  0  0
    1.3330   -0.8072    1.4175 O   0  0  0  0  0  0  0  0  0  0  0  0
    0.2715   -0.6200   -0.6140 N   0  0  0  0  0  0  0  0  0  0  0  0
    0.3285   -0.4456   -2.0090 C   0  0  0  0  0  0  0  0  0  0  0  0
    1.2158    0.0226   -2.7018 O   0  0  0  0  0  0  0  0  0  0  0  0
   -0.8681   -0.8942   -2.5511 N   0  0  0  0  0  0  0  0  0  0  0  0
   -1.8054   -1.3141   -1.5449 C   0  0  0  0  0  0  0  0  0  0  0  0
   -3.0301   -0.3719   -1.4812 C   0  0  0  0  0  0  0  0  0  0  0  0
   -3.3777    0.0277   -0.0397 C   0  0  0  0  0  0  0  0  0  0  0  0
   -3.1605   -1.1702    0.9244 C   0  0  0  0  0  0  0  0  0  0  0  0
   -1.6589   -0.7134    0.9246 C   0  0  0  0  0  0  0  0  0  0  0  0
   -2.2373    0.7657    0.7635 C   0  0  0  0  0  0  0  0  0  0  0  0
   -1.4575    1.8352   -0.0043 C   0  0  0  0  0  0  0  0  0  0  0  0
   -2.6720    1.4037    2.1018 C   0  0  0  0  0  0  0  0  0  0  0  0
   -0.9316   -1.3774   -0.2592 C   0  0  0  0  0  0  0  0  0  0  0  0
   -0.5809   -2.8395    0.0718 C   0  0  0  0  0  0  0  0  0  0  0  0
    5.2340    1.9569   -0.0311 H   0  0  0  0  0  0  0  0  0  0  0  0
    4.5575    1.0272   -1.3868 H   0  0  0  0  0  0  0  0  0  0  0  0
    3.7361    2.4766   -0.8348 H   0  0  0  0  0  0  0  0  0  0  0  0
    3.9895    2.0538    2.1666 H   0  0  0  0  0  0  0  0  0  0  0  0
    2.4394    2.4518    1.3896 H   0  0  0  0  0  0  0  0  0  0  0  0
    2.5597    1.0613    2.4555 H   0  0  0  0  0  0  0  0  0  0  0  0
    4.4660   -1.1212    0.0306 H   0  0  0  0  0  0  0  0  0  0  0  0
    3.7717   -1.0748    1.6432 H   0  0  0  0  0  0  0  0  0  0  0  0
    5.2567   -0.1801    1.3166 H   0  0  0  0  0  0  0  0  0  0  0  0
   -1.0403   -0.8147   -3.5455 H   0  0  0  0  0  0  0  0  0  0  0  0
   -2.1545   -2.3116   -1.8387 H   0  0  0  0  0  0  0  0  0  0  0  0
   -2.8918    0.5232   -2.0989 H   0  0  0  0  0  0  0  0  0  0  0  0
   -3.8891   -0.8971   -1.9188 H   0  0  0  0  0  0  0  0  0  0  0  0
   -4.3625    0.5029    0.0245 H   0  0  0  0  0  0  0  0  0  0  0  0
   -3.3945   -2.1621    0.5250 H   0  0  0  0  0  0  0  0  0  0  0  0
   -3.6766   -1.1000    1.8875 H   0  0  0  0  0  0  0  0  0  0  0  0
   -1.1570   -0.8844    1.8842 H   0  0  0  0  0  0  0  0  0  0  0  0
   -0.5337    2.0954    0.5238 H   0  0  0  0  0  0  0  0  0  0  0  0
   -1.1879    1.5418   -1.0177 H   0  0  0  0  0  0  0  0  0  0  0  0
   -2.0535    2.7502   -0.1020 H   0  0  0  0  0  0  0  0  0  0  0  0
   -1.7940    1.7360    2.6674 H   0  0  0  0  0  0  0  0  0  0  0  0
   -3.3093    2.2768    1.9220 H   0  0  0  0  0  0  0  0  0  0  0  0
   -3.2308    0.7264    2.7519 H   0  0  0  0  0  0  0  0  0  0  0  0
    0.0108   -2.9192    0.9894 H   0  0  0  0  0  0  0  0  0  0  0  0
   -1.4810   -3.4445    0.2226 H   0  0  0  0  0  0  0  0  0  0  0  0
    0.0010   -3.3001   -0.7348 H   0  0  0  0  0  0  0  0  0  0  0  0
  1  2  1  0
  2  3  1  0
  2  4  1  0
  2  5  1  0
  5  6  1  0
  6  7  2  0
  6  8  1  0
  8  9  1  0
  9 10  2  0
  9 11  1  0
 11 12  1  0
 12 13  1  0
 13 14  1  0
 14 15  1  0
 15 16  1  0
 16 17  1  0
 17 18  1  0
 17 19  1  0
 16 20  1  0
 20 21  1  0
 20  8  1  0
 20 12  1  0
 17 14  1  0
  1 22  1  0
  1 23  1  0
  1 24  1  0
  3 25  1  0
  3 26  1  0
  3 27  1  0
  4 28  1  0
  4 29  1  0
  4 30  1  0
 11 31  1  0
 12 32  1  0
 13 33  1  0
 13 34  1  0
 14 35  1  0
 15 36  1  0
 15 37  1  0
 16 38  1  0
 18 39  1  0
 18 40  1  0
 18 41  1  0
 19 42  1  0
 19 43  1  0
 19 44  1  0
 21 45  1  0
 21 46  1  0
 21 47  1  0
M  END
>  <Unnamed: 0>  (60) 
300

>  <ID>  (60) 
TRAIN_0300

>  <Canonical_Smiles>  (60) 
CC(C)(C)OC(=O)N1C(=O)NC2CC3CC(C3(C)C)C12C

>  <Inhibition>  (60) 
0.0

>  <TDC_conf_true_inhibitor>  (60) 
0

>  <TDC_conf_non_inhibitor>  (60) 
1

>  <split>  (60) 
1

$$$$
60
     RDKit          3D

 35 36  0  0  0  0  0  0  0  0999 V2000
   -5.9892    0.4621    0.9827 C   0  0  0  0  0  0  0  0  0  0  0  0
   -4.5614    0.2245    0.5852 C   0  0  0  0  0  0  0  0  0  0  0  0
   -3.7930    1.2689    0.0519 C   0  0  0  0  0  0  0  0  0  0  0  0
   -2.4578    1.0582   -0.2945 C   0  0  0  0  0  0  0  0  0  0  0  0
   -1.8849   -0.1996   -0.0904 C   0  0  0  0  0  0  0  0  0  0  0  0
   -2.6352   -1.2490    0.4438 C   0  0  0  0  0  0  0  0  0  0  0  0
   -3.9703   -1.0307    0.7880 C   0  0  0  0  0  0  0  0  0  0  0  0
   -0.1798   -0.4552   -0.5336 S   0  0  0  0  0  6  0  0  0  0  0  0
    0.0745   -1.8777   -0.4654 O   0  0  0  0  0  0  0  0  0  0  0  0
    0.0774    0.3346   -1.7150 O   0  0  0  0  0  0  0  0  0  0  0  0
    0.5860    0.2689    0.7949 N   0  0  0  0  0  0  0  0  0  0  0  0
    1.9894   -0.1475    1.0628 C   0  0  0  0  0  0  0  0  0  0  0  0
    3.0346    0.2564   -0.0052 C   0  0  0  0  0  0  0  0  0  0  0  0
    2.9754    1.7418   -0.3507 C   0  0  0  0  0  0  0  0  0  0  0  0
    4.3516   -0.0015    0.5413 O   0  0  0  0  0  0  0  0  0  0  0  0
    4.8362   -1.1304   -0.1871 C   0  0  0  0  0  0  0  0  0  0  0  0
    4.1736   -0.9911   -1.5278 C   0  0  0  0  0  0  0  0  0  0  0  0
    2.8688   -0.5305   -1.1935 O   0  0  0  0  0  0  0  0  0  0  0  0
   -6.4515    1.2214    0.3432 H   0  0  0  0  0  0  0  0  0  0  0  0
   -6.0364    0.7986    2.0229 H   0  0  0  0  0  0  0  0  0  0  0  0
   -6.5810   -0.4534    0.8790 H   0  0  0  0  0  0  0  0  0  0  0  0
   -4.2342    2.2514   -0.1039 H   0  0  0  0  0  0  0  0  0  0  0  0
   -1.8727    1.8701   -0.7217 H   0  0  0  0  0  0  0  0  0  0  0  0
   -2.1950   -2.2326    0.5921 H   0  0  0  0  0  0  0  0  0  0  0  0
   -4.5518   -1.8490    1.2086 H   0  0  0  0  0  0  0  0  0  0  0  0
   -0.0041    0.2490    1.6261 H   0  0  0  0  0  0  0  0  0  0  0  0
    2.2741    0.3036    2.0224 H   0  0  0  0  0  0  0  0  0  0  0  0
    2.0139   -1.2305    1.2351 H   0  0  0  0  0  0  0  0  0  0  0  0
    3.1111    2.3608    0.5425 H   0  0  0  0  0  0  0  0  0  0  0  0
    2.0337    2.0137   -0.8355 H   0  0  0  0  0  0  0  0  0  0  0  0
    3.7792    2.0053   -1.0479 H   0  0  0  0  0  0  0  0  0  0  0  0
    4.5068   -2.0361    0.3335 H   0  0  0  0  0  0  0  0  0  0  0  0
    5.9276   -1.1185   -0.2377 H   0  0  0  0  0  0  0  0  0  0  0  0
    4.6611   -0.2275   -2.1434 H   0  0  0  0  0  0  0  0  0  0  0  0
    4.1233   -1.9286   -2.0868 H   0  0  0  0  0  0  0  0  0  0  0  0
  1  2  1  0
  2  3  2  0
  3  4  1  0
  4  5  2  0
  5  6  1  0
  6  7  2  0
  5  8  1  0
  8  9  2  0
  8 10  2  0
  8 11  1  0
 11 12  1  0
 12 13  1  0
 13 14  1  0
 13 15  1  0
 15 16  1  0
 16 17  1  0
 17 18  1  0
  7  2  1  0
 18 13  1  0
  1 19  1  0
  1 20  1  0
  1 21  1  0
  3 22  1  0
  4 23  1  0
  6 24  1  0
  7 25  1  0
 11 26  1  0
 12 27  1  0
 12 28  1  0
 14 29  1  0
 14 30  1  0
 14 31  1  0
 16 32  1  0
 16 33  1  0
 17 34  1  0
 17 35  1  0
M  END
>  <Unnamed: 0>  (61) 
303

>  <ID>  (61) 
TRAIN_0303

>  <Canonical_Smiles>  (61) 
Cc1ccc(cc1)S(=O)(=O)NCC2(C)OCCO2

>  <Inhibition>  (61) 
6.78

>  <TDC_conf_true_inhibitor>  (61) 
0

>  <TDC_conf_non_inhibitor>  (61) 
1

>  <split>  (61) 
1

$$$$
61
     RDKit          3D

 39 41  0  0  0  0  0  0  0  0999 V2000
    3.8652    3.7524   -0.2505 C   0  0  0  0  0  0  0  0  0  0  0  0
    2.9747    2.7277   -0.7009 O   0  0  0  0  0  0  0  0  0  0  0  0
    3.3376    2.1567   -1.8827 C   0  0  0  0  0  0  0  0  0  0  0  0
    4.3218    2.4815   -2.5327 O   0  0  0  0  0  0  0  0  0  0  0  0
    2.3774    1.1211   -2.3280 C   0  0  0  0  0  0  0  0  0  0  0  0
    1.5190    0.4904   -1.5009 C   0  0  0  0  0  0  0  0  0  0  0  0
    1.3493    0.6817   -0.1323 N   0  0  0  0  0  0  0  0  0  0  0  0
    0.2141   -0.0198    0.2895 C   0  0  0  0  0  0  0  0  0  0  0  0
   -0.2388   -0.7514   -0.7624 C   0  0  0  0  0  0  0  0  0  0  0  0
    0.5823   -0.4727   -1.8522 N   0  0  0  0  0  0  0  0  0  0  0  0
   -1.3773   -1.6611   -0.8742 C   0  0  0  0  0  0  0  0  0  0  0  0
   -2.2915   -1.5283   -1.9295 C   0  0  0  0  0  0  0  0  0  0  0  0
   -3.3793   -2.3994   -2.0417 C   0  0  0  0  0  0  0  0  0  0  0  0
   -3.5556   -3.4114   -1.1008 C   0  0  0  0  0  0  0  0  0  0  0  0
   -4.8952   -4.4816   -1.2372 Cl  0  0  0  0  0  0  0  0  0  0  0  0
   -2.6535   -3.5611   -0.0506 C   0  0  0  0  0  0  0  0  0  0  0  0
   -1.5663   -2.6894    0.0602 C   0  0  0  0  0  0  0  0  0  0  0  0
   -0.3033    0.1344    1.6493 C   0  0  0  0  0  0  0  0  0  0  0  0
   -1.6680    0.3481    1.8891 C   0  0  0  0  0  0  0  0  0  0  0  0
   -2.1457    0.5059    3.1936 C   0  0  0  0  0  0  0  0  0  0  0  0
   -1.2587    0.4575    4.2663 C   0  0  0  0  0  0  0  0  0  0  0  0
   -1.8456    0.6520    5.8713 Cl  0  0  0  0  0  0  0  0  0  0  0  0
    0.1014    0.2548    4.0461 C   0  0  0  0  0  0  0  0  0  0  0  0
    0.5769    0.0972    2.7411 C   0  0  0  0  0  0  0  0  0  0  0  0
    2.4145    0.7799   -3.7068 C   0  0  0  0  0  0  0  0  0  0  0  0
    2.3804    0.4720   -4.8261 N   0  0  0  0  0  0  0  0  0  0  0  0
    3.4878    4.1316    0.7032 H   0  0  0  0  0  0  0  0  0  0  0  0
    4.8681    3.3450   -0.0891 H   0  0  0  0  0  0  0  0  0  0  0  0
    3.8905    4.5792   -0.9671 H   0  0  0  0  0  0  0  0  0  0  0  0
    1.5844    1.5741    0.2883 H   0  0  0  0  0  0  0  0  0  0  0  0
    0.3829   -0.7855   -2.7913 H   0  0  0  0  0  0  0  0  0  0  0  0
   -2.1728   -0.7360   -2.6655 H   0  0  0  0  0  0  0  0  0  0  0  0
   -4.0826   -2.2815   -2.8618 H   0  0  0  0  0  0  0  0  0  0  0  0
   -2.7862   -4.3523    0.6825 H   0  0  0  0  0  0  0  0  0  0  0  0
   -0.8633   -2.8246    0.8802 H   0  0  0  0  0  0  0  0  0  0  0  0
   -2.3734    0.4001    1.0622 H   0  0  0  0  0  0  0  0  0  0  0  0
   -3.2070    0.6678    3.3625 H   0  0  0  0  0  0  0  0  0  0  0  0
    0.7953    0.2155    4.8815 H   0  0  0  0  0  0  0  0  0  0  0  0
    1.6406   -0.0702    2.5817 H   0  0  0  0  0  0  0  0  0  0  0  0
  1  2  1  0
  2  3  1  0
  3  4  2  0
  3  5  1  0
  5  6  2  3
  6  7  1  0
  7  8  1  0
  8  9  2  0
  9 10  1  0
  9 11  1  0
 11 12  2  0
 12 13  1  0
 13 14  2  0
 14 15  1  0
 14 16  1  0
 16 17  2  0
  8 18  1  0
 18 19  2  0
 19 20  1  0
 20 21  2  0
 21 22  1  0
 21 23  1  0
 23 24  2  0
  5 25  1  0
 25 26  3  0
 10  6  1  0
 17 11  1  0
 24 18  1  0
  1 27  1  0
  1 28  1  0
  1 29  1  0
  7 30  1  0
 10 31  1  0
 12 32  1  0
 13 33  1  0
 16 34  1  0
 17 35  1  0
 19 36  1  0
 20 37  1  0
 23 38  1  0
 24 39  1  0
M  END
>  <Unnamed: 0>  (62) 
305

>  <ID>  (62) 
TRAIN_0305

>  <Canonical_Smiles>  (62) 
COC(=O)C(=C1NC(=C(N1)c2ccc(Cl)cc2)c3ccc(Cl)cc3)C#N

>  <Inhibition>  (62) 
18.5

>  <TDC_conf_true_inhibitor>  (62) 
0

>  <TDC_conf_non_inhibitor>  (62) 
1

>  <split>  (62) 
1

$$$$
62
     RDKit          3D

 32 34  0  0  0  0  0  0  0  0999 V2000
   -3.7396    2.5456    2.3083 F   0  0  0  0  0  0  0  0  0  0  0  0
   -3.0151    1.6693    1.6011 C   0  0  0  0  0  0  0  0  0  0  0  0
   -2.1151    2.1320    0.6519 C   0  0  0  0  0  0  0  0  0  0  0  0
   -1.3585    1.2172   -0.0869 C   0  0  0  0  0  0  0  0  0  0  0  0
   -1.4897   -0.1661    0.1241 C   0  0  0  0  0  0  0  0  0  0  0  0
   -2.4203   -0.6049    1.0824 C   0  0  0  0  0  0  0  0  0  0  0  0
   -3.1776    0.3092    1.8210 C   0  0  0  0  0  0  0  0  0  0  0  0
   -0.7002   -1.1162   -0.6262 N   0  0  0  0  0  0  0  0  0  0  0  0
   -1.3766   -2.2400   -1.1488 C   0  0  0  0  0  0  0  0  0  0  0  0
   -2.5801   -2.4783   -1.0421 O   0  0  0  0  0  0  0  0  0  0  0  0
   -0.6192   -3.1183   -1.8801 N   0  0  0  0  0  0  0  0  0  0  0  0
    0.6506   -2.9107   -2.3113 C   0  0  0  0  0  0  0  0  0  0  0  0
    1.1998   -3.6107   -3.1517 O   0  0  0  0  0  0  0  0  0  0  0  0
    1.3445   -1.7827   -1.6921 C   0  0  0  0  0  0  0  0  0  0  0  0
    0.6679   -0.9430   -0.8953 C   0  0  0  0  0  0  0  0  0  0  0  0
    1.4845    0.0920   -0.2198 C   0  0  0  0  0  0  0  0  0  0  0  0
    2.1347    1.0945   -0.9613 C   0  0  0  0  0  0  0  0  0  0  0  0
    2.9144    2.0567   -0.3159 C   0  0  0  0  0  0  0  0  0  0  0  0
    3.0509    2.0146    1.0666 C   0  0  0  0  0  0  0  0  0  0  0  0
    3.7984    2.9387    1.6832 F   0  0  0  0  0  0  0  0  0  0  0  0
    2.4258    1.0270    1.8178 C   0  0  0  0  0  0  0  0  0  0  0  0
    1.6464    0.0625    1.1758 C   0  0  0  0  0  0  0  0  0  0  0  0
   -2.0133    3.1994    0.4833 H   0  0  0  0  0  0  0  0  0  0  0  0
   -0.6973    1.6062   -0.8553 H   0  0  0  0  0  0  0  0  0  0  0  0
   -2.5569   -1.6653    1.2831 H   0  0  0  0  0  0  0  0  0  0  0  0
   -3.8914   -0.0356    2.5624 H   0  0  0  0  0  0  0  0  0  0  0  0
   -1.1277   -3.8726   -2.3158 H   0  0  0  0  0  0  0  0  0  0  0  0
    2.4044   -1.7009   -1.9020 H   0  0  0  0  0  0  0  0  0  0  0  0
    2.0308    1.1387   -2.0437 H   0  0  0  0  0  0  0  0  0  0  0  0
    3.4150    2.8371   -0.8806 H   0  0  0  0  0  0  0  0  0  0  0  0
    2.5483    1.0134    2.8963 H   0  0  0  0  0  0  0  0  0  0  0  0
    1.1622   -0.7089    1.7716 H   0  0  0  0  0  0  0  0  0  0  0  0
  1  2  1  0
  2  3  2  0
  3  4  1  0
  4  5  2  0
  5  6  1  0
  6  7  2  0
  5  8  1  0
  8  9  1  0
  9 10  2  0
  9 11  1  0
 11 12  1  0
 12 13  2  0
 12 14  1  0
 14 15  2  0
 15 16  1  0
 16 17  2  0
 17 18  1  0
 18 19  2  0
 19 20  1  0
 19 21  1  0
 21 22  2  0
  7  2  1  0
 15  8  1  0
 22 16  1  0
  3 23  1  0
  4 24  1  0
  6 25  1  0
  7 26  1  0
 11 27  1  0
 14 28  1  0
 17 29  1  0
 18 30  1  0
 21 31  1  0
 22 32  1  0
M  END
>  <Unnamed: 0>  (63) 
309

>  <ID>  (63) 
TRAIN_0309

>  <Canonical_Smiles>  (63) 
Fc1ccc(cc1)N2C(=O)NC(=O)C=C2c3ccc(F)cc3

>  <Inhibition>  (63) 
0.0

>  <TDC_conf_true_inhibitor>  (63) 
0

>  <TDC_conf_non_inhibitor>  (63) 
1

>  <split>  (63) 
1

$$$$
63
     RDKit          3D

 38 41  0  0  0  0  0  0  0  0999 V2000
    5.5201   -1.5592    2.1490 C   0  0  0  0  0  0  0  0  0  0  0  0
    4.2611   -1.0038    1.7874 O   0  0  0  0  0  0  0  0  0  0  0  0
    4.1273   -0.7560    0.4259 C   0  0  0  0  0  0  0  0  0  0  0  0
    5.1730   -1.0496   -0.3803 N   0  0  0  0  0  0  0  0  0  0  0  0
    4.9850   -0.7898   -1.6728 C   0  0  0  0  0  0  0  0  0  0  0  0
    3.8752   -0.2767   -2.2097 N   0  0  0  0  0  0  0  0  0  0  0  0
    2.8501    0.0054   -1.3775 C   0  0  0  0  0  0  0  0  0  0  0  0
    1.6614    0.5447   -1.8796 C   0  0  0  0  0  0  0  0  0  0  0  0
    1.5219    0.7925   -3.2234 O   0  0  0  0  0  0  0  0  0  0  0  0
    0.6329    0.8245   -1.0094 C   0  0  0  0  0  0  0  0  0  0  0  0
   -0.6914    1.3805   -1.2517 C   0  0  0  0  0  0  0  0  0  0  0  0
   -1.0969    1.6676   -2.3618 O   0  0  0  0  0  0  0  0  0  0  0  0
   -1.3167    1.4844   -0.0267 N   0  0  0  0  0  0  0  0  0  0  0  0
   -2.6901    1.9015    0.1613 C   0  0  0  0  0  0  0  0  0  0  0  0
   -3.6163    0.7251    0.3493 C   0  0  0  0  0  0  0  0  0  0  0  0
   -3.9503   -0.0919   -0.7440 C   0  0  0  0  0  0  0  0  0  0  0  0
   -4.7924   -1.1913   -0.5737 C   0  0  0  0  0  0  0  0  0  0  0  0
   -5.2994   -1.4760    0.6879 C   0  0  0  0  0  0  0  0  0  0  0  0
   -6.1072   -2.5316    0.8521 F   0  0  0  0  0  0  0  0  0  0  0  0
   -4.9799   -0.6824    1.7834 C   0  0  0  0  0  0  0  0  0  0  0  0
   -4.1375    0.4180    1.6163 C   0  0  0  0  0  0  0  0  0  0  0  0
   -0.4999    0.9522    1.0565 C   0  0  0  0  0  0  0  0  0  0  0  0
    0.7653    0.5758    0.3352 C   0  0  0  0  0  0  0  0  0  0  0  0
    1.8742    0.0617    0.8814 N   0  0  0  0  0  0  0  0  0  0  0  0
    2.9069   -0.2182    0.0175 C   0  0  0  0  0  0  0  0  0  0  0  0
    5.6756   -2.5336    1.6734 H   0  0  0  0  0  0  0  0  0  0  0  0
    5.5164   -1.7154    3.2321 H   0  0  0  0  0  0  0  0  0  0  0  0
    6.3395   -0.8707    1.9156 H   0  0  0  0  0  0  0  0  0  0  0  0
    5.8022   -1.0131   -2.3501 H   0  0  0  0  0  0  0  0  0  0  0  0
    0.6279    1.1584   -3.3920 H   0  0  0  0  0  0  0  0  0  0  0  0
   -3.0171    2.4778   -0.7124 H   0  0  0  0  0  0  0  0  0  0  0  0
   -2.7254    2.5760    1.0243 H   0  0  0  0  0  0  0  0  0  0  0  0
   -3.5527    0.1282   -1.7341 H   0  0  0  0  0  0  0  0  0  0  0  0
   -5.0544   -1.8249   -1.4150 H   0  0  0  0  0  0  0  0  0  0  0  0
   -5.3891   -0.9266    2.7586 H   0  0  0  0  0  0  0  0  0  0  0  0
   -3.8924    1.0324    2.4798 H   0  0  0  0  0  0  0  0  0  0  0  0
   -0.9788    0.0716    1.4923 H   0  0  0  0  0  0  0  0  0  0  0  0
   -0.3279    1.7322    1.8025 H   0  0  0  0  0  0  0  0  0  0  0  0
  1  2  1  0
  2  3  1  0
  3  4  2  0
  4  5  1  0
  5  6  2  0
  6  7  1  0
  7  8  2  0
  8  9  1  0
  8 10  1  0
 10 11  1  0
 11 12  2  0
 11 13  1  0
 13 14  1  0
 14 15  1  0
 15 16  2  0
 16 17  1  0
 17 18  2  0
 18 19  1  0
 18 20  1  0
 20 21  2  0
 13 22  1  0
 22 23  1  0
 23 24  1  0
 24 25  2  0
 25  3  1  0
 25  7  1  0
 23 10  2  0
 21 15  1  0
  1 26  1  0
  1 27  1  0
  1 28  1  0
  5 29  1  0
  9 30  1  0
 14 31  1  0
 14 32  1  0
 16 33  1  0
 17 34  1  0
 20 35  1  0
 21 36  1  0
 22 37  1  0
 22 38  1  0
M  END
>  <Unnamed: 0>  (64) 
327

>  <ID>  (64) 
TRAIN_0327

>  <Canonical_Smiles>  (64) 
COc1ncnc2c(O)c3C(=O)N(Cc4ccc(F)cc4)Cc3nc12

>  <Inhibition>  (64) 
7.83

>  <TDC_conf_true_inhibitor>  (64) 
0

>  <TDC_conf_non_inhibitor>  (64) 
1

>  <split>  (64) 
1

$$$$
64
     RDKit          3D

 30 31  0  0  0  0  0  0  0  0999 V2000
   -4.9262   -0.5542   -0.2420 C   0  0  0  0  0  0  0  0  0  0  0  0
   -4.3257   -0.1818    1.1006 C   0  0  0  0  0  0  0  0  0  0  0  0
   -2.8960   -0.2975    1.0506 O   0  0  0  0  0  0  0  0  0  0  0  0
   -2.2414    0.7994    0.6034 C   0  0  0  0  0  0  0  0  0  0  0  0
   -2.7100    1.8627    0.2419 O   0  0  0  0  0  0  0  0  0  0  0  0
   -0.8165    0.5009    0.6100 C   0  0  0  0  0  0  0  0  0  0  0  0
   -0.0580    0.7988    1.7234 C   0  0  0  0  0  0  0  0  0  0  0  0
   -0.7048    1.4989    3.1561 Cl  0  0  0  0  0  0  0  0  0  0  0  0
    1.2683    0.5541    1.8146 N   0  0  0  0  0  0  0  0  0  0  0  0
    1.8703    0.0068    0.7371 C   0  0  0  0  0  0  0  0  0  0  0  0
    3.3407   -0.3069    0.8374 C   0  0  0  0  0  0  0  0  0  0  0  0
    4.0687    0.1359   -0.4280 C   0  0  0  0  0  0  0  0  0  0  0  0
    3.3617   -0.2644   -1.7301 C   0  0  0  0  0  0  0  0  0  0  0  0
    2.0040   -0.9526   -1.5467 C   0  0  0  0  0  0  0  0  0  0  0  0
    1.1968   -0.3135   -0.4464 C   0  0  0  0  0  0  0  0  0  0  0  0
   -0.1818   -0.0699   -0.4936 C   0  0  0  0  0  0  0  0  0  0  0  0
   -1.0968   -0.4873   -1.9047 Cl  0  0  0  0  0  0  0  0  0  0  0  0
   -4.6065   -1.5578   -0.5412 H   0  0  0  0  0  0  0  0  0  0  0  0
   -4.5920    0.1331   -1.0256 H   0  0  0  0  0  0  0  0  0  0  0  0
   -6.0186   -0.5294   -0.1986 H   0  0  0  0  0  0  0  0  0  0  0  0
   -4.6768   -0.8792    1.8682 H   0  0  0  0  0  0  0  0  0  0  0  0
   -4.6328    0.8232    1.4122 H   0  0  0  0  0  0  0  0  0  0  0  0
    3.7790    0.1913    1.7097 H   0  0  0  0  0  0  0  0  0  0  0  0
    3.4592   -1.3870    0.9858 H   0  0  0  0  0  0  0  0  0  0  0  0
    4.1677    1.2298   -0.4151 H   0  0  0  0  0  0  0  0  0  0  0  0
    5.0920   -0.2577   -0.4221 H   0  0  0  0  0  0  0  0  0  0  0  0
    3.2192    0.6435   -2.3316 H   0  0  0  0  0  0  0  0  0  0  0  0
    4.0163   -0.9138   -2.3240 H   0  0  0  0  0  0  0  0  0  0  0  0
    2.1543   -2.0093   -1.2914 H   0  0  0  0  0  0  0  0  0  0  0  0
    1.4857   -0.9307   -2.5099 H   0  0  0  0  0  0  0  0  0  0  0  0
  1  2  1  0
  2  3  1  0
  3  4  1  0
  4  5  2  0
  4  6  1  0
  6  7  2  0
  7  8  1  0
  7  9  1  0
  9 10  2  0
 10 11  1  0
 11 12  1  0
 12 13  1  0
 13 14  1  0
 14 15  1  0
 15 16  2  0
 16 17  1  0
 16  6  1  0
 15 10  1  0
  1 18  1  0
  1 19  1  0
  1 20  1  0
  2 21  1  0
  2 22  1  0
 11 23  1  0
 11 24  1  0
 12 25  1  0
 12 26  1  0
 13 27  1  0
 13 28  1  0
 14 29  1  0
 14 30  1  0
M  END
>  <Unnamed: 0>  (65) 
334

>  <ID>  (65) 
TRAIN_0334

>  <Canonical_Smiles>  (65) 
CCOC(=O)c1c(Cl)nc2CCCCc2c1Cl

>  <Inhibition>  (65) 
0.0

>  <TDC_conf_true_inhibitor>  (65) 
0

>  <TDC_conf_non_inhibitor>  (65) 
1

>  <split>  (65) 
1

$$$$
65
     RDKit          3D

 47 48  0  0  0  0  0  0  0  0999 V2000
    7.1705    2.6126    1.4361 C   0  0  0  0  0  0  0  0  0  0  0  0
    6.5405    1.9004    0.2540 C   0  0  0  0  0  0  0  0  0  0  0  0
    5.3359    1.2348    0.6614 O   0  0  0  0  0  0  0  0  0  0  0  0
    4.2044    1.9892    0.6339 C   0  0  0  0  0  0  0  0  0  0  0  0
    4.1364    3.1639    0.3006 O   0  0  0  0  0  0  0  0  0  0  0  0
    3.0137    1.1653    1.0501 C   0  0  0  0  0  0  0  0  0  0  0  0
    2.5152    0.2708   -0.0809 C   0  0  0  0  0  0  0  0  0  0  0  0
    1.9424    1.0843   -1.2441 C   0  0  0  0  0  0  0  0  0  0  0  0
    1.2448   -0.0026   -2.5377 S   0  0  0  0  0  0  0  0  0  0  0  0
   -0.3384   -0.4655   -1.8322 C   0  0  0  0  0  0  0  0  0  0  0  0
   -0.6871    0.1660   -0.6907 N   0  0  0  0  0  0  0  0  0  0  0  0
   -1.8792   -0.1076   -0.1144 C   0  0  0  0  0  0  0  0  0  0  0  0
   -2.1777    0.6904    1.1284 C   0  0  0  0  0  0  0  0  0  0  0  0
   -3.2871    0.0866    1.9796 C   0  0  0  0  0  0  0  0  0  0  0  0
   -4.4964   -0.2230    1.0991 C   0  0  0  0  0  0  0  0  0  0  0  0
   -5.6754   -0.7114    1.9383 C   0  0  0  0  0  0  0  0  0  0  0  0
   -4.1159   -1.2669    0.0363 C   0  0  0  0  0  0  0  0  0  0  0  0
   -2.7898   -1.0214   -0.6522 C   0  0  0  0  0  0  0  0  0  0  0  0
   -2.4053   -1.7261   -1.8200 C   0  0  0  0  0  0  0  0  0  0  0  0
   -1.1667   -1.4125   -2.4324 C   0  0  0  0  0  0  0  0  0  0  0  0
   -0.7716   -2.0459   -3.6597 C   0  0  0  0  0  0  0  0  0  0  0  0
   -0.4899   -2.5726   -4.6543 N   0  0  0  0  0  0  0  0  0  0  0  0
   -3.2727   -2.7925   -2.4619 C   0  0  0  0  0  0  0  0  0  0  0  0
   -2.5751   -3.9248   -2.7501 F   0  0  0  0  0  0  0  0  0  0  0  0
   -4.3168   -3.2174   -1.7002 F   0  0  0  0  0  0  0  0  0  0  0  0
   -3.8192   -2.3660   -3.6311 F   0  0  0  0  0  0  0  0  0  0  0  0
    7.3523    1.9099    2.2559 H   0  0  0  0  0  0  0  0  0  0  0  0
    6.5066    3.3910    1.8252 H   0  0  0  0  0  0  0  0  0  0  0  0
    8.1197    3.0743    1.1497 H   0  0  0  0  0  0  0  0  0  0  0  0
    6.3530    2.5900   -0.5771 H   0  0  0  0  0  0  0  0  0  0  0  0
    7.2225    1.1282   -0.1168 H   0  0  0  0  0  0  0  0  0  0  0  0
    3.2978    0.5615    1.9201 H   0  0  0  0  0  0  0  0  0  0  0  0
    2.2235    1.8436    1.3922 H   0  0  0  0  0  0  0  0  0  0  0  0
    3.3361   -0.3620   -0.4412 H   0  0  0  0  0  0  0  0  0  0  0  0
    1.7528   -0.3986    0.3336 H   0  0  0  0  0  0  0  0  0  0  0  0
    2.7454    1.6553   -1.7222 H   0  0  0  0  0  0  0  0  0  0  0  0
    1.1977    1.8127   -0.9076 H   0  0  0  0  0  0  0  0  0  0  0  0
   -1.2677    0.7797    1.7335 H   0  0  0  0  0  0  0  0  0  0  0  0
   -2.4632    1.7031    0.8177 H   0  0  0  0  0  0  0  0  0  0  0  0
   -3.5568    0.7893    2.7767 H   0  0  0  0  0  0  0  0  0  0  0  0
   -2.9301   -0.8306    2.4660 H   0  0  0  0  0  0  0  0  0  0  0  0
   -4.8035    0.7011    0.5901 H   0  0  0  0  0  0  0  0  0  0  0  0
   -5.9735    0.0494    2.6673 H   0  0  0  0  0  0  0  0  0  0  0  0
   -6.5414   -0.9250    1.3030 H   0  0  0  0  0  0  0  0  0  0  0  0
   -5.4235   -1.6250    2.4875 H   0  0  0  0  0  0  0  0  0  0  0  0
   -4.0694   -2.2596    0.5022 H   0  0  0  0  0  0  0  0  0  0  0  0
   -4.9175   -1.2737   -0.7119 H   0  0  0  0  0  0  0  0  0  0  0  0
  1  2  1  0
  2  3  1  0
  3  4  1  0
  4  5  2  0
  4  6  1  0
  6  7  1  0
  7  8  1  0
  8  9  1  0
  9 10  1  0
 10 11  2  0
 11 12  1  0
 12 13  1  0
 13 14  1  0
 14 15  1  0
 15 16  1  0
 15 17  1  0
 17 18  1  0
 18 19  1  0
 19 20  2  0
 20 21  1  0
 21 22  3  0
 19 23  1  0
 23 24  1  0
 23 25  1  0
 23 26  1  0
 20 10  1  0
 18 12  2  0
  1 27  1  0
  1 28  1  0
  1 29  1  0
  2 30  1  0
  2 31  1  0
  6 32  1  0
  6 33  1  0
  7 34  1  0
  7 35  1  0
  8 36  1  0
  8 37  1  0
 13 38  1  0
 13 39  1  0
 14 40  1  0
 14 41  1  0
 15 42  1  0
 16 43  1  0
 16 44  1  0
 16 45  1  0
 17 46  1  0
 17 47  1  0
M  END
>  <Unnamed: 0>  (66) 
1150

>  <ID>  (66) 
TRAIN_1150

>  <Canonical_Smiles>  (66) 
CCOC(=O)CCCSc1nc2CCC(C)Cc2c(c1C#N)C(F)(F)F

>  <Inhibition>  (66) 
32.6

>  <TDC_conf_true_inhibitor>  (66) 
0

>  <TDC_conf_non_inhibitor>  (66) 
1

>  <split>  (66) 
1

$$$$
66
     RDKit          3D

 70 72  0  0  0  0  0  0  0  0999 V2000
    0.6828    0.0000    0.0000 Cl  0  0  0  0  0  0  0  0  0  0  0  0
    0.6828    0.0000    0.0000 Cl  0  0  0  0  0  0  0  0  0  0  0  0
    0.6828    0.0000    0.0000 Cl  0  0  0  0  0  0  0  0  0  0  0  0
   -8.0075   -2.5179   -0.6205 C   0  0  0  0  0  0  0  0  0  0  0  0
   -7.3568   -1.8674   -1.7359 N   0  0  0  0  0  0  0  0  0  0  0  0
   -5.9547   -2.1875   -1.8255 C   0  0  0  0  0  0  0  0  0  0  0  0
   -5.2662   -1.6527   -0.6003 C   0  0  0  0  0  0  0  0  0  0  0  0
   -5.5676   -0.3288   -0.2475 N   0  0  0  0  0  0  0  0  0  0  0  0
   -4.5128    0.5030    0.2137 C   0  0  0  0  0  0  0  0  0  0  0  0
   -3.9939    0.0458    1.5817 C   0  0  0  0  0  0  0  0  0  0  0  0
   -2.9252    0.8942    2.0408 N   0  0  0  0  0  0  0  0  0  0  0  0
   -1.5849    0.7442    1.8209 C   0  0  0  0  0  0  0  0  0  0  0  0
   -0.9461    1.7893    2.4454 C   0  0  0  0  0  0  0  0  0  0  0  0
   -1.9445    2.5403    3.0266 C   0  0  0  0  0  0  0  0  0  0  0  0
   -3.1190    1.9868    2.7720 N   0  0  0  0  0  0  0  0  0  0  0  0
    0.5040    2.0745    2.4979 C   0  0  0  0  0  0  0  0  0  0  0  0
    0.9814    3.1740    3.1741 C   0  0  0  0  0  0  0  0  0  0  0  0
    2.3181    3.4894    3.2557 C   0  0  0  0  0  0  0  0  0  0  0  0
    3.1985    2.6163    2.6004 C   0  0  0  0  0  0  0  0  0  0  0  0
    4.5239    2.5881    2.4563 N   0  0  0  0  0  0  0  0  0  0  0  0
    4.8798    1.5424    1.7364 N   0  0  0  0  0  0  0  0  0  0  0  0
    3.7549    0.8977    1.4200 C   0  0  0  0  0  0  0  0  0  0  0  0
    3.6361   -0.3583    0.6050 C   0  0  0  0  0  0  0  0  0  0  0  0
    4.9028   -0.7036   -0.0353 N   0  0  0  0  0  0  0  0  0  0  0  0
    4.6710   -1.9244   -0.7572 C   0  0  0  0  0  0  0  0  0  0  0  0
    5.5063   -2.1346   -1.9688 C   0  0  0  0  0  0  0  0  0  0  0  0
    6.7605   -1.3434   -1.9901 C   0  0  0  0  0  0  0  0  0  0  0  0
    7.9333   -1.7552   -2.4470 N   0  0  0  0  0  0  0  0  0  0  0  0
    9.0016   -0.9442   -2.4139 C   0  0  0  0  0  0  0  0  0  0  0  0
    8.9661    0.3449   -1.9163 C   0  0  0  0  0  0  0  0  0  0  0  0
    7.7420    0.7903   -1.4335 C   0  0  0  0  0  0  0  0  0  0  0  0
    6.6580   -0.0528   -1.4747 C   0  0  0  0  0  0  0  0  0  0  0  0
    5.2994    0.3218   -0.9841 C   0  0  0  0  0  0  0  0  0  0  0  0
    2.7057    1.5565    1.9517 N   0  0  0  0  0  0  0  0  0  0  0  0
    1.3937    1.2782    1.8923 N   0  0  0  0  0  0  0  0  0  0  0  0
   -6.7479    0.2788   -0.6981 C   0  0  0  0  0  0  0  0  0  0  0  0
   -7.5386   -0.4370   -1.7245 C   0  0  0  0  0  0  0  0  0  0  0  0
   -0.6828    0.0000    0.0000 H   0  0  0  0  0  0  0  0  0  0  0  0
   -0.6828    0.0000    0.0000 H   0  0  0  0  0  0  0  0  0  0  0  0
   -0.6828    0.0000    0.0000 H   0  0  0  0  0  0  0  0  0  0  0  0
   -7.3767   -3.2859   -0.1384 H   0  0  0  0  0  0  0  0  0  0  0  0
   -8.3485   -1.7499    0.1243 H   0  0  0  0  0  0  0  0  0  0  0  0
   -8.9391   -2.9807   -1.0195 H   0  0  0  0  0  0  0  0  0  0  0  0
   -5.5461   -1.8219   -2.7717 H   0  0  0  0  0  0  0  0  0  0  0  0
   -5.8672   -3.2982   -1.8106 H   0  0  0  0  0  0  0  0  0  0  0  0
   -4.1635   -1.7446   -0.7845 H   0  0  0  0  0  0  0  0  0  0  0  0
   -5.4658   -2.4042    0.2197 H   0  0  0  0  0  0  0  0  0  0  0  0
   -3.6722    0.4504   -0.5090 H   0  0  0  0  0  0  0  0  0  0  0  0
   -4.8547    1.5329    0.3366 H   0  0  0  0  0  0  0  0  0  0  0  0
   -3.6694   -1.0130    1.5485 H   0  0  0  0  0  0  0  0  0  0  0  0
   -4.8255    0.1173    2.3090 H   0  0  0  0  0  0  0  0  0  0  0  0
   -1.1436   -0.0433    1.2667 H   0  0  0  0  0  0  0  0  0  0  0  0
   -1.7721    3.4597    3.6118 H   0  0  0  0  0  0  0  0  0  0  0  0
    0.2380    3.8069    3.6598 H   0  0  0  0  0  0  0  0  0  0  0  0
    2.7025    4.3311    3.7724 H   0  0  0  0  0  0  0  0  0  0  0  0
    3.3707   -1.2148    1.2715 H   0  0  0  0  0  0  0  0  0  0  0  0
    2.8316   -0.2382   -0.1222 H   0  0  0  0  0  0  0  0  0  0  0  0
    3.5900   -1.9807   -1.0742 H   0  0  0  0  0  0  0  0  0  0  0  0
    4.8411   -2.8102   -0.0883 H   0  0  0  0  0  0  0  0  0  0  0  0
    5.8090   -3.2097   -2.1064 H   0  0  0  0  0  0  0  0  0  0  0  0
    4.9497   -1.8611   -2.9120 H   0  0  0  0  0  0  0  0  0  0  0  0
    9.9417   -1.3345   -2.8035 H   0  0  0  0  0  0  0  0  0  0  0  0
    9.8066    1.0100   -1.8799 H   0  0  0  0  0  0  0  0  0  0  0  0
    7.6227    1.7835   -1.0268 H   0  0  0  0  0  0  0  0  0  0  0  0
    4.5690    0.4063   -1.8234 H   0  0  0  0  0  0  0  0  0  0  0  0
    5.3935    1.3226   -0.5614 H   0  0  0  0  0  0  0  0  0  0  0  0
   -6.4868    1.2946   -1.1240 H   0  0  0  0  0  0  0  0  0  0  0  0
   -7.3931    0.5429    0.1915 H   0  0  0  0  0  0  0  0  0  0  0  0
   -7.3858   -0.0575   -2.7726 H   0  0  0  0  0  0  0  0  0  0  0  0
   -8.6274   -0.2587   -1.5148 H   0  0  0  0  0  0  0  0  0  0  0  0
  4  5  1  0
  5  6  1  0
  6  7  1  0
  7  8  1  0
  8  9  1  0
  9 10  1  0
 10 11  1  0
 11 12  1  0
 12 13  2  0
 13 14  1  0
 14 15  2  0
 13 16  1  0
 16 17  1  0
 17 18  2  0
 18 19  1  0
 19 20  2  0
 20 21  1  0
 21 22  2  0
 22 23  1  0
 23 24  1  0
 24 25  1  0
 25 26  1  0
 26 27  1  0
 27 28  2  0
 28 29  1  0
 29 30  2  0
 30 31  1  0
 31 32  2  0
 32 33  1  0
 22 34  1  0
 34 35  1  0
  8 36  1  0
 36 37  1  0
 37  5  1  0
 15 11  1  0
 35 16  2  0
 34 19  1  0
 33 24  1  0
 32 27  1  0
  1 38  1  0
  2 39  1  0
  3 40  1  0
  4 41  1  0
  4 42  1  0
  4 43  1  0
  6 44  1  0
  6 45  1  0
  7 46  1  0
  7 47  1  0
  9 48  1  0
  9 49  1  0
 10 50  1  0
 10 51  1  0
 12 52  1  0
 14 53  1  0
 17 54  1  0
 18 55  1  0
 23 56  1  0
 23 57  1  0
 25 58  1  0
 25 59  1  0
 26 60  1  0
 26 61  1  0
 29 62  1  0
 30 63  1  0
 31 64  1  0
 33 65  1  0
 33 66  1  0
 36 67  1  0
 36 68  1  0
 37 69  1  0
 37 70  1  0
M  END
>  <Unnamed: 0>  (67) 
338

>  <ID>  (67) 
TRAIN_0338

>  <Canonical_Smiles>  (67) 
Cl.Cl.Cl.CN1CCN(CCn2cc(cn2)c3ccc4nnc(CN5CCc6ncccc6C5)n4n3)CC1

>  <Inhibition>  (67) 
15.6

>  <TDC_conf_true_inhibitor>  (67) 
0

>  <TDC_conf_non_inhibitor>  (67) 
1

>  <split>  (67) 
1

$$$$
67
     RDKit          3D

 26 27  0  0  0  0  0  0  0  0999 V2000
   -3.8178   -2.5564    0.4927 F   0  0  0  0  0  0  0  0  0  0  0  0
   -4.0167   -1.2240    0.2945 C   0  0  0  0  0  0  0  0  0  0  0  0
   -4.8242   -1.1254   -0.7989 F   0  0  0  0  0  0  0  0  0  0  0  0
   -4.7685   -0.7977    1.3483 F   0  0  0  0  0  0  0  0  0  0  0  0
   -2.7210   -0.4660    0.1452 C   0  0  0  0  0  0  0  0  0  0  0  0
   -2.0660    0.0557    1.2705 C   0  0  0  0  0  0  0  0  0  0  0  0
   -0.8545    0.7375    1.1351 C   0  0  0  0  0  0  0  0  0  0  0  0
   -0.2745    0.9123   -0.1286 C   0  0  0  0  0  0  0  0  0  0  0  0
    1.0499    1.6261   -0.2718 C   0  0  0  0  0  0  0  0  0  0  0  0
    2.1598    0.7099   -0.1608 N   0  0  0  0  0  0  0  0  0  0  0  0
    2.7674    0.3721    1.0016 C   0  0  0  0  0  0  0  0  0  0  0  0
    2.5438    0.7707    2.1298 O   0  0  0  0  0  0  0  0  0  0  0  0
    3.8091   -0.6073    0.6723 C   0  0  0  0  0  0  0  0  0  0  0  0
    3.7749   -0.8085   -0.6458 C   0  0  0  0  0  0  0  0  0  0  0  0
    2.7104    0.0363   -1.1989 C   0  0  0  0  0  0  0  0  0  0  0  0
    2.4268    0.0821   -2.3817 O   0  0  0  0  0  0  0  0  0  0  0  0
   -0.9164    0.3732   -1.2515 C   0  0  0  0  0  0  0  0  0  0  0  0
   -2.1279   -0.3085   -1.1160 C   0  0  0  0  0  0  0  0  0  0  0  0
   -2.4970   -0.0698    2.2631 H   0  0  0  0  0  0  0  0  0  0  0  0
   -0.3594    1.1248    2.0252 H   0  0  0  0  0  0  0  0  0  0  0  0
    1.0945    2.1314   -1.2440 H   0  0  0  0  0  0  0  0  0  0  0  0
    1.1398    2.3979    0.5020 H   0  0  0  0  0  0  0  0  0  0  0  0
    4.4566   -1.0546    1.4052 H   0  0  0  0  0  0  0  0  0  0  0  0
    4.3879   -1.4589   -1.2439 H   0  0  0  0  0  0  0  0  0  0  0  0
   -0.4700    0.4737   -2.2405 H   0  0  0  0  0  0  0  0  0  0  0  0
   -2.6076   -0.7209   -2.0029 H   0  0  0  0  0  0  0  0  0  0  0  0
  1  2  1  0
  2  3  1  0
  2  4  1  0
  2  5  1  0
  5  6  2  0
  6  7  1  0
  7  8  2  0
  8  9  1  0
  9 10  1  0
 10 11  1  0
 11 12  2  0
 11 13  1  0
 13 14  2  0
 14 15  1  0
 15 16  2  0
  8 17  1  0
 17 18  2  0
 18  5  1  0
 15 10  1  0
  6 19  1  0
  7 20  1  0
  9 21  1  0
  9 22  1  0
 13 23  1  0
 14 24  1  0
 17 25  1  0
 18 26  1  0
M  END
>  <Unnamed: 0>  (68) 
340

>  <ID>  (68) 
TRAIN_0340

>  <Canonical_Smiles>  (68) 
FC(F)(F)c1ccc(CN2C(=O)C=CC2=O)cc1

>  <Inhibition>  (68) 
1.64

>  <TDC_conf_true_inhibitor>  (68) 
0

>  <TDC_conf_non_inhibitor>  (68) 
1

>  <split>  (68) 
1

$$$$
68
     RDKit          3D

 42 43  0  0  0  0  0  0  0  0999 V2000
    9.2588    0.2609   -0.0317 C   0  0  0  0  0  0  0  0  0  0  0  0
    8.1272   -0.4325    0.4795 O   0  0  0  0  0  0  0  0  0  0  0  0
    6.8966    0.0232    0.0908 C   0  0  0  0  0  0  0  0  0  0  0  0
    6.6509    1.1104   -0.7417 C   0  0  0  0  0  0  0  0  0  0  0  0
    5.3368    1.4638   -1.0463 C   0  0  0  0  0  0  0  0  0  0  0  0
    4.2650    0.7326   -0.5237 C   0  0  0  0  0  0  0  0  0  0  0  0
    4.4818   -0.3675    0.3107 C   0  0  0  0  0  0  0  0  0  0  0  0
    3.4566   -1.1469    0.8797 N   0  0  0  0  0  0  0  0  0  0  0  0
    2.1126   -1.0190    0.7639 C   0  0  0  0  0  0  0  0  0  0  0  0
    1.4230   -0.1005    0.1171 N   0  0  0  0  0  0  0  0  0  0  0  0
    0.0578   -0.2766    0.2092 N   0  0  0  0  0  0  0  0  0  0  0  0
   -0.2510   -1.3284    0.9305 C   0  0  0  0  0  0  0  0  0  0  0  0
   -1.9004   -1.8170    1.2312 S   0  0  0  0  0  0  0  0  0  0  0  0
   -2.7914   -0.5401    0.2953 C   0  0  0  0  0  0  0  0  0  0  0  0
   -4.2918   -0.7346    0.3622 C   0  0  0  0  0  0  0  0  0  0  0  0
   -4.8840   -1.6427    0.9253 O   0  0  0  0  0  0  0  0  0  0  0  0
   -4.8886    0.2823   -0.3270 O   0  0  0  0  0  0  0  0  0  0  0  0
   -6.3335    0.3546   -0.4475 C   0  0  0  0  0  0  0  0  0  0  0  0
   -7.0009    0.5176    0.9219 C   0  0  0  0  0  0  0  0  0  0  0  0
   -6.8869   -0.8500   -1.2158 C   0  0  0  0  0  0  0  0  0  0  0  0
   -6.5912    1.6244   -1.2730 C   0  0  0  0  0  0  0  0  0  0  0  0
    1.0949   -2.1799    1.5499 S   0  0  0  0  0  0  0  0  0  0  0  0
    5.8153   -0.7023    0.6074 C   0  0  0  0  0  0  0  0  0  0  0  0
    9.3065    0.1854   -1.1231 H   0  0  0  0  0  0  0  0  0  0  0  0
    9.2631    1.3069    0.2936 H   0  0  0  0  0  0  0  0  0  0  0  0
   10.1554   -0.2170    0.3751 H   0  0  0  0  0  0  0  0  0  0  0  0
    7.4525    1.7045   -1.1660 H   0  0  0  0  0  0  0  0  0  0  0  0
    5.1393    2.3157   -1.6922 H   0  0  0  0  0  0  0  0  0  0  0  0
    3.2618    1.0502   -0.7925 H   0  0  0  0  0  0  0  0  0  0  0  0
    3.7915   -1.9322    1.4237 H   0  0  0  0  0  0  0  0  0  0  0  0
   -2.4892   -0.5857   -0.7562 H   0  0  0  0  0  0  0  0  0  0  0  0
   -2.5539    0.4428    0.7150 H   0  0  0  0  0  0  0  0  0  0  0  0
   -6.5250    1.3229    1.4932 H   0  0  0  0  0  0  0  0  0  0  0  0
   -8.0674    0.7451    0.8201 H   0  0  0  0  0  0  0  0  0  0  0  0
   -6.9177   -0.3888    1.5286 H   0  0  0  0  0  0  0  0  0  0  0  0
   -6.7899   -1.7786   -0.6457 H   0  0  0  0  0  0  0  0  0  0  0  0
   -6.3382   -0.9984   -2.1530 H   0  0  0  0  0  0  0  0  0  0  0  0
   -7.9487   -0.7194   -1.4504 H   0  0  0  0  0  0  0  0  0  0  0  0
   -6.1802    2.5071   -0.7681 H   0  0  0  0  0  0  0  0  0  0  0  0
   -6.0909    1.5648   -2.2470 H   0  0  0  0  0  0  0  0  0  0  0  0
   -7.6602    1.7896   -1.4430 H   0  0  0  0  0  0  0  0  0  0  0  0
    6.0337   -1.5466    1.2574 H   0  0  0  0  0  0  0  0  0  0  0  0
  1  2  1  0
  2  3  1  0
  3  4  2  0
  4  5  1  0
  5  6  2  0
  6  7  1  0
  7  8  1  0
  8  9  1  0
  9 10  2  0
 10 11  1  0
 11 12  2  0
 12 13  1  0
 13 14  1  0
 14 15  1  0
 15 16  2  0
 15 17  1  0
 17 18  1  0
 18 19  1  0
 18 20  1  0
 18 21  1  0
 12 22  1  0
  7 23  2  0
 23  3  1  0
 22  9  1  0
  1 24  1  0
  1 25  1  0
  1 26  1  0
  4 27  1  0
  5 28  1  0
  6 29  1  0
  8 30  1  0
 14 31  1  0
 14 32  1  0
 19 33  1  0
 19 34  1  0
 19 35  1  0
 20 36  1  0
 20 37  1  0
 20 38  1  0
 21 39  1  0
 21 40  1  0
 21 41  1  0
 23 42  1  0
M  END
>  <Unnamed: 0>  (69) 
349

>  <ID>  (69) 
TRAIN_0349

>  <Canonical_Smiles>  (69) 
COc1cccc(Nc2nnc(SCC(=O)OC(C)(C)C)s2)c1

>  <Inhibition>  (69) 
43.6

>  <TDC_conf_true_inhibitor>  (69) 
1

>  <TDC_conf_non_inhibitor>  (69) 
0

>  <split>  (69) 
1

$$$$
69
     RDKit          3D

 42 43  0  0  0  0  0  0  0  0999 V2000
    4.7621   -0.9231   -1.3517 C   0  0  0  0  0  0  0  0  0  0  0  0
    3.6232   -0.3821   -0.4998 C   0  0  0  0  0  0  0  0  0  0  0  0
    2.5943   -1.4762   -0.1889 C   0  0  0  0  0  0  0  0  0  0  0  0
    1.4149   -1.0283    0.6914 C   0  0  0  0  0  0  0  0  0  0  0  0
    0.6864    0.0947    0.0457 N   0  0  0  0  0  0  0  0  0  0  0  0
   -0.6984    0.2365    0.5484 C   0  0  0  0  0  0  0  0  0  0  0  0
   -1.6330   -0.8659    0.0546 C   0  0  0  0  0  0  0  0  0  0  0  0
   -1.5415   -1.3899   -1.2461 C   0  0  0  0  0  0  0  0  0  0  0  0
   -2.4155   -2.3892   -1.6781 C   0  0  0  0  0  0  0  0  0  0  0  0
   -3.3986   -2.8749   -0.8194 C   0  0  0  0  0  0  0  0  0  0  0  0
   -3.5110   -2.3605    0.4702 C   0  0  0  0  0  0  0  0  0  0  0  0
   -2.6371   -1.3613    0.9041 C   0  0  0  0  0  0  0  0  0  0  0  0
   -1.2485    1.6232    0.2132 C   0  0  0  0  0  0  0  0  0  0  0  0
   -1.8873    2.3852    1.2061 C   0  0  0  0  0  0  0  0  0  0  0  0
   -2.4030    3.6499    0.9139 C   0  0  0  0  0  0  0  0  0  0  0  0
   -2.2909    4.1696   -0.3737 C   0  0  0  0  0  0  0  0  0  0  0  0
   -1.6651    3.4259   -1.3714 C   0  0  0  0  0  0  0  0  0  0  0  0
   -1.1492    2.1615   -1.0812 C   0  0  0  0  0  0  0  0  0  0  0  0
    1.9210   -0.6592    2.0918 C   0  0  0  0  0  0  0  0  0  0  0  0
    2.3167   -1.4387    2.9440 O   0  0  0  0  0  0  0  0  0  0  0  0
    1.9499    0.6720    2.3297 O   0  0  0  0  0  0  0  0  0  0  0  0
    4.3893   -1.3081   -2.3062 H   0  0  0  0  0  0  0  0  0  0  0  0
    5.4855   -0.1298   -1.5647 H   0  0  0  0  0  0  0  0  0  0  0  0
    5.2881   -1.7326   -0.8356 H   0  0  0  0  0  0  0  0  0  0  0  0
    3.1495    0.4479   -1.0353 H   0  0  0  0  0  0  0  0  0  0  0  0
    4.0396    0.0230    0.4289 H   0  0  0  0  0  0  0  0  0  0  0  0
    3.1075   -2.3115    0.3056 H   0  0  0  0  0  0  0  0  0  0  0  0
    2.1990   -1.8714   -1.1340 H   0  0  0  0  0  0  0  0  0  0  0  0
    0.7451   -1.8875    0.8151 H   0  0  0  0  0  0  0  0  0  0  0  0
    1.1808    0.9517    0.3132 H   0  0  0  0  0  0  0  0  0  0  0  0
   -0.6540    0.1695    1.6442 H   0  0  0  0  0  0  0  0  0  0  0  0
   -0.7802   -1.0200   -1.9298 H   0  0  0  0  0  0  0  0  0  0  0  0
   -2.3289   -2.7851   -2.6864 H   0  0  0  0  0  0  0  0  0  0  0  0
   -4.0802   -3.6509   -1.1572 H   0  0  0  0  0  0  0  0  0  0  0  0
   -4.2826   -2.7345    1.1380 H   0  0  0  0  0  0  0  0  0  0  0  0
   -2.7479   -0.9675    1.9117 H   0  0  0  0  0  0  0  0  0  0  0  0
   -1.9904    1.9970    2.2166 H   0  0  0  0  0  0  0  0  0  0  0  0
   -2.8954    4.2284    1.6911 H   0  0  0  0  0  0  0  0  0  0  0  0
   -2.6943    5.1526   -0.6012 H   0  0  0  0  0  0  0  0  0  0  0  0
   -1.5800    3.8271   -2.3777 H   0  0  0  0  0  0  0  0  0  0  0  0
   -0.6653    1.5922   -1.8721 H   0  0  0  0  0  0  0  0  0  0  0  0
    2.3253    0.7402    3.2330 H   0  0  0  0  0  0  0  0  0  0  0  0
  1  2  1  0
  2  3  1  0
  3  4  1  0
  4  5  1  0
  5  6  1  0
  6  7  1  0
  7  8  2  0
  8  9  1  0
  9 10  2  0
 10 11  1  0
 11 12  2  0
  6 13  1  0
 13 14  2  0
 14 15  1  0
 15 16  2  0
 16 17  1  0
 17 18  2  0
  4 19  1  0
 19 20  2  0
 19 21  1  0
 12  7  1  0
 18 13  1  0
  1 22  1  0
  1 23  1  0
  1 24  1  0
  2 25  1  0
  2 26  1  0
  3 27  1  0
  3 28  1  0
  4 29  1  0
  5 30  1  0
  6 31  1  0
  8 32  1  0
  9 33  1  0
 10 34  1  0
 11 35  1  0
 12 36  1  0
 14 37  1  0
 15 38  1  0
 16 39  1  0
 17 40  1  0
 18 41  1  0
 21 42  1  0
M  END
>  <Unnamed: 0>  (70) 
362

>  <ID>  (70) 
TRAIN_0362

>  <Canonical_Smiles>  (70) 
CCCC(NC(c1ccccc1)c2ccccc2)C(=O)O

>  <Inhibition>  (70) 
21.7

>  <TDC_conf_true_inhibitor>  (70) 
0

>  <TDC_conf_non_inhibitor>  (70) 
1

>  <split>  (70) 
1

$$$$
70
     RDKit          3D

 48 49  0  0  0  0  0  0  0  0999 V2000
    6.5783    1.2906   -1.5454 C   0  0  0  0  0  0  0  0  0  0  0  0
    5.5229    0.4458   -1.9848 O   0  0  0  0  0  0  0  0  0  0  0  0
    4.5187    0.1962   -1.0904 C   0  0  0  0  0  0  0  0  0  0  0  0
    4.4441    0.6769    0.2164 C   0  0  0  0  0  0  0  0  0  0  0  0
    3.3545    0.3423    1.0296 C   0  0  0  0  0  0  0  0  0  0  0  0
    2.3195   -0.4701    0.5466 C   0  0  0  0  0  0  0  0  0  0  0  0
    1.1520   -0.8417    1.4359 C   0  0  0  0  0  0  0  0  0  0  0  0
   -0.2126   -0.4398    0.8927 C   0  0  0  0  0  0  0  0  0  0  0  0
   -0.6533    0.9088    0.9158 C   0  0  0  0  0  0  0  0  0  0  0  0
    0.2079    2.0120    1.4799 C   0  0  0  0  0  0  0  0  0  0  0  0
   -1.8949    1.2337    0.3328 C   0  0  0  0  0  0  0  0  0  0  0  0
   -2.2615    2.5603    0.3110 O   0  0  0  0  0  0  0  0  0  0  0  0
   -3.4787    2.7891    1.0219 C   0  0  0  0  0  0  0  0  0  0  0  0
   -2.6806    0.2503   -0.2894 C   0  0  0  0  0  0  0  0  0  0  0  0
   -3.8290    0.6167   -0.9505 O   0  0  0  0  0  0  0  0  0  0  0  0
   -3.5108    0.9583   -2.3022 C   0  0  0  0  0  0  0  0  0  0  0  0
   -2.2914   -1.0929   -0.2494 C   0  0  0  0  0  0  0  0  0  0  0  0
   -3.0080   -2.0968   -0.8549 O   0  0  0  0  0  0  0  0  0  0  0  0
   -4.3823   -2.1314   -0.4736 C   0  0  0  0  0  0  0  0  0  0  0  0
   -1.0574   -1.4286    0.3336 C   0  0  0  0  0  0  0  0  0  0  0  0
   -0.5809   -2.7206    0.3102 O   0  0  0  0  0  0  0  0  0  0  0  0
   -1.4161   -3.6285    1.0270 C   0  0  0  0  0  0  0  0  0  0  0  0
    2.4088   -0.9590   -0.7627 C   0  0  0  0  0  0  0  0  0  0  0  0
    3.4972   -0.6239   -1.5720 C   0  0  0  0  0  0  0  0  0  0  0  0
    7.1156    0.8449   -0.7018 H   0  0  0  0  0  0  0  0  0  0  0  0
    7.2874    1.3972   -2.3720 H   0  0  0  0  0  0  0  0  0  0  0  0
    6.2069    2.2899   -1.2950 H   0  0  0  0  0  0  0  0  0  0  0  0
    5.2160    1.3123    0.6365 H   0  0  0  0  0  0  0  0  0  0  0  0
    3.3210    0.7263    2.0467 H   0  0  0  0  0  0  0  0  0  0  0  0
    1.2735   -0.4056    2.4352 H   0  0  0  0  0  0  0  0  0  0  0  0
    1.2078   -1.9212    1.6231 H   0  0  0  0  0  0  0  0  0  0  0  0
    0.9335    2.3399    0.7296 H   0  0  0  0  0  0  0  0  0  0  0  0
    0.7350    1.6909    2.3821 H   0  0  0  0  0  0  0  0  0  0  0  0
   -0.3851    2.8799    1.7858 H   0  0  0  0  0  0  0  0  0  0  0  0
   -4.3340    2.7287    0.3430 H   0  0  0  0  0  0  0  0  0  0  0  0
   -3.6097    2.1034    1.8674 H   0  0  0  0  0  0  0  0  0  0  0  0
   -3.4429    3.8077    1.4204 H   0  0  0  0  0  0  0  0  0  0  0  0
   -3.0641    0.1103   -2.8331 H   0  0  0  0  0  0  0  0  0  0  0  0
   -2.8485    1.8294   -2.3490 H   0  0  0  0  0  0  0  0  0  0  0  0
   -4.4456    1.2181   -2.8079 H   0  0  0  0  0  0  0  0  0  0  0  0
   -4.9913   -1.5898   -1.2029 H   0  0  0  0  0  0  0  0  0  0  0  0
   -4.5529   -1.7478    0.5389 H   0  0  0  0  0  0  0  0  0  0  0  0
   -4.7031   -3.1777   -0.4897 H   0  0  0  0  0  0  0  0  0  0  0  0
   -0.7692   -4.3818    1.4870 H   0  0  0  0  0  0  0  0  0  0  0  0
   -2.0884   -4.1458    0.3368 H   0  0  0  0  0  0  0  0  0  0  0  0
   -1.9867   -3.1434    1.8277 H   0  0  0  0  0  0  0  0  0  0  0  0
    1.6306   -1.6053   -1.1640 H   0  0  0  0  0  0  0  0  0  0  0  0
    3.5476   -1.0080   -2.5878 H   0  0  0  0  0  0  0  0  0  0  0  0
  1  2  1  0
  2  3  1  0
  3  4  2  0
  4  5  1  0
  5  6  2  0
  6  7  1  0
  7  8  1  0
  8  9  2  0
  9 10  1  0
  9 11  1  0
 11 12  1  0
 12 13  1  0
 11 14  2  0
 14 15  1  0
 15 16  1  0
 14 17  1  0
 17 18  1  0
 18 19  1  0
 17 20  2  0
 20 21  1  0
 21 22  1  0
  6 23  1  0
 23 24  2  0
 24  3  1  0
 20  8  1  0
  1 25  1  0
  1 26  1  0
  1 27  1  0
  4 28  1  0
  5 29  1  0
  7 30  1  0
  7 31  1  0
 10 32  1  0
 10 33  1  0
 10 34  1  0
 13 35  1  0
 13 36  1  0
 13 37  1  0
 16 38  1  0
 16 39  1  0
 16 40  1  0
 19 41  1  0
 19 42  1  0
 19 43  1  0
 22 44  1  0
 22 45  1  0
 22 46  1  0
 23 47  1  0
 24 48  1  0
M  END
>  <Unnamed: 0>  (71) 
631

>  <ID>  (71) 
TRAIN_0631

>  <Canonical_Smiles>  (71) 
COc1ccc(Cc2c(C)c(OC)c(OC)c(OC)c2OC)cc1

>  <Inhibition>  (71) 
35.8

>  <TDC_conf_true_inhibitor>  (71) 
1

>  <TDC_conf_non_inhibitor>  (71) 
0

>  <split>  (71) 
1

$$$$
71
     RDKit          3D

 43 44  0  0  0  0  0  0  0  0999 V2000
    6.5789   -0.1476    0.7135 C   0  0  0  0  0  0  0  0  0  0  0  0
    6.2515   -0.5433   -0.7116 C   0  0  0  0  0  0  0  0  0  0  0  0
    5.0981    0.5545   -1.5088 S   0  0  0  0  0  6  0  0  0  0  0  0
    5.5905    1.9126   -1.3704 O   0  0  0  0  0  0  0  0  0  0  0  0
    4.8017    0.0102   -2.8211 O   0  0  0  0  0  0  0  0  0  0  0  0
    3.6116    0.4127   -0.5451 C   0  0  0  0  0  0  0  0  0  0  0  0
    2.7951   -0.7076   -0.7112 C   0  0  0  0  0  0  0  0  0  0  0  0
    1.6244   -0.8209    0.0402 C   0  0  0  0  0  0  0  0  0  0  0  0
    1.2554    0.1875    0.9451 C   0  0  0  0  0  0  0  0  0  0  0  0
   -0.0137    0.0641    1.7612 C   0  0  0  0  0  0  0  0  0  0  0  0
   -1.2816   -0.0080    0.9373 C   0  0  0  0  0  0  0  0  0  0  0  0
   -2.0995   -1.1473    0.9929 C   0  0  0  0  0  0  0  0  0  0  0  0
   -3.2703   -1.2176    0.2364 C   0  0  0  0  0  0  0  0  0  0  0  0
   -3.6328   -0.1377   -0.5718 C   0  0  0  0  0  0  0  0  0  0  0  0
   -2.8247    0.9975   -0.6519 C   0  0  0  0  0  0  0  0  0  0  0  0
   -1.6567    1.0627    0.1094 C   0  0  0  0  0  0  0  0  0  0  0  0
   -5.1186   -0.2402   -1.5415 S   0  0  0  0  0  6  0  0  0  0  0  0
   -5.2519   -1.6239   -1.9592 O   0  0  0  0  0  0  0  0  0  0  0  0
   -5.0834    0.8245   -2.5264 O   0  0  0  0  0  0  0  0  0  0  0  0
   -6.4286    0.1065   -0.3863 C   0  0  0  0  0  0  0  0  0  0  0  0
   -6.3592    1.4968    0.2108 C   0  0  0  0  0  0  0  0  0  0  0  0
    2.0825    1.3127    1.0879 C   0  0  0  0  0  0  0  0  0  0  0  0
    3.2557    1.4312    0.3408 C   0  0  0  0  0  0  0  0  0  0  0  0
    5.6948   -0.1927    1.3561 H   0  0  0  0  0  0  0  0  0  0  0  0
    6.9789    0.8699    0.7621 H   0  0  0  0  0  0  0  0  0  0  0  0
    7.3290   -0.8269    1.1297 H   0  0  0  0  0  0  0  0  0  0  0  0
    7.1609   -0.5302   -1.3215 H   0  0  0  0  0  0  0  0  0  0  0  0
    5.8333   -1.5537   -0.7511 H   0  0  0  0  0  0  0  0  0  0  0  0
    3.0513   -1.4850   -1.4277 H   0  0  0  0  0  0  0  0  0  0  0  0
    0.9888   -1.6941   -0.0965 H   0  0  0  0  0  0  0  0  0  0  0  0
   -0.1090    0.9114    2.4529 H   0  0  0  0  0  0  0  0  0  0  0  0
    0.0804   -0.8248    2.3986 H   0  0  0  0  0  0  0  0  0  0  0  0
   -1.8233   -1.9935    1.6190 H   0  0  0  0  0  0  0  0  0  0  0  0
   -3.8820   -2.1164    0.2736 H   0  0  0  0  0  0  0  0  0  0  0  0
   -3.0884    1.8287   -1.3025 H   0  0  0  0  0  0  0  0  0  0  0  0
   -1.0291    1.9497    0.0418 H   0  0  0  0  0  0  0  0  0  0  0  0
   -6.3950   -0.6575    0.3962 H   0  0  0  0  0  0  0  0  0  0  0  0
   -7.3664   -0.0167   -0.9380 H   0  0  0  0  0  0  0  0  0  0  0  0
   -5.4529    1.6322    0.8082 H   0  0  0  0  0  0  0  0  0  0  0  0
   -6.3672    2.2658   -0.5679 H   0  0  0  0  0  0  0  0  0  0  0  0
   -7.2192    1.6684    0.8658 H   0  0  0  0  0  0  0  0  0  0  0  0
    1.8134    2.1108    1.7771 H   0  0  0  0  0  0  0  0  0  0  0  0
    3.8775    2.3168    0.4539 H   0  0  0  0  0  0  0  0  0  0  0  0
  1  2  1  0
  2  3  1  0
  3  4  2  0
  3  5  2  0
  3  6  1  0
  6  7  2  0
  7  8  1  0
  8  9  2  0
  9 10  1  0
 10 11  1  0
 11 12  2  0
 12 13  1  0
 13 14  2  0
 14 15  1  0
 15 16  2  0
 14 17  1  0
 17 18  2  0
 17 19  2  0
 17 20  1  0
 20 21  1  0
  9 22  1  0
 22 23  2  0
 23  6  1  0
 16 11  1  0
  1 24  1  0
  1 25  1  0
  1 26  1  0
  2 27  1  0
  2 28  1  0
  7 29  1  0
  8 30  1  0
 10 31  1  0
 10 32  1  0
 12 33  1  0
 13 34  1  0
 15 35  1  0
 16 36  1  0
 20 37  1  0
 20 38  1  0
 21 39  1  0
 21 40  1  0
 21 41  1  0
 22 42  1  0
 23 43  1  0
M  END
>  <Unnamed: 0>  (72) 
1594

>  <ID>  (72) 
TRAIN_1594

>  <Canonical_Smiles>  (72) 
CCS(=O)(=O)c1ccc(Cc2ccc(cc2)S(=O)(=O)CC)cc1

>  <Inhibition>  (72) 
31.975401

>  <TDC_conf_true_inhibitor>  (72) 
1

>  <TDC_conf_non_inhibitor>  (72) 
0

>  <split>  (72) 
1

$$$$
72
     RDKit          3D

 28 31  0  0  0  0  0  0  0  0999 V2000
    2.7094   -0.0694    1.4479 C   0  0  0  0  0  0  0  0  0  0  0  0
    1.4665   -0.4513    0.7306 C   0  0  0  0  0  0  0  0  0  0  0  0
    0.3406    0.2470    1.0619 O   0  0  0  0  0  0  0  0  0  0  0  0
   -0.6850   -0.2536    0.3116 C   0  0  0  0  0  0  0  0  0  0  0  0
   -0.2241   -1.2827   -0.4963 C   0  0  0  0  0  0  0  0  0  0  0  0
   -1.1418   -1.9153   -1.3324 C   0  0  0  0  0  0  0  0  0  0  0  0
   -2.4444   -1.5256   -1.3426 N   0  0  0  0  0  0  0  0  0  0  0  0
   -2.8684   -0.5215   -0.5487 C   0  0  0  0  0  0  0  0  0  0  0  0
   -4.2003   -0.1310   -0.5687 C   0  0  0  0  0  0  0  0  0  0  0  0
   -4.6797    0.9086    0.2417 C   0  0  0  0  0  0  0  0  0  0  0  0
   -3.8168    1.5866    1.1012 C   0  0  0  0  0  0  0  0  0  0  0  0
   -2.4750    1.2255    1.1512 C   0  0  0  0  0  0  0  0  0  0  0  0
   -2.0187    0.1776    0.3272 C   0  0  0  0  0  0  0  0  0  0  0  0
    1.1623   -1.4094   -0.2176 C   0  0  0  0  0  0  0  0  0  0  0  0
    3.7941    0.1846    0.5192 N   0  0  0  0  0  0  0  0  0  0  0  0
    4.1471    1.4283    0.1256 N   0  0  0  0  0  0  0  0  0  0  0  0
    5.1834    1.1285   -0.6641 C   0  0  0  0  0  0  0  0  0  0  0  0
    5.4611   -0.2043   -0.7317 N   0  0  0  0  0  0  0  0  0  0  0  0
    4.5713   -0.8099    0.0432 N   0  0  0  0  0  0  0  0  0  0  0  0
    3.0298   -0.8727    2.1199 H   0  0  0  0  0  0  0  0  0  0  0  0
    2.5666    0.8373    2.0456 H   0  0  0  0  0  0  0  0  0  0  0  0
   -0.8787   -2.7280   -2.0000 H   0  0  0  0  0  0  0  0  0  0  0  0
   -4.8876   -0.6487   -1.2340 H   0  0  0  0  0  0  0  0  0  0  0  0
   -5.7304    1.1851    0.1962 H   0  0  0  0  0  0  0  0  0  0  0  0
   -4.1906    2.3926    1.7273 H   0  0  0  0  0  0  0  0  0  0  0  0
   -1.7914    1.7470    1.8158 H   0  0  0  0  0  0  0  0  0  0  0  0
    1.8571   -2.1119   -0.6599 H   0  0  0  0  0  0  0  0  0  0  0  0
    5.7439    1.8866   -1.1925 H   0  0  0  0  0  0  0  0  0  0  0  0
  1  2  1  0
  2  3  1  0
  3  4  1  0
  4  5  2  0
  5  6  1  0
  6  7  2  0
  7  8  1  0
  8  9  2  0
  9 10  1  0
 10 11  2  0
 11 12  1  0
 12 13  2  0
  5 14  1  0
  1 15  1  0
 15 16  1  0
 16 17  2  0
 17 18  1  0
 18 19  2  0
 14  2  2  0
 13  4  1  0
 13  8  1  0
 19 15  1  0
  1 20  1  0
  1 21  1  0
  6 22  1  0
  9 23  1  0
 10 24  1  0
 11 25  1  0
 12 26  1  0
 14 27  1  0
 17 28  1  0
M  END
>  <Unnamed: 0>  (73) 
391

>  <ID>  (73) 
TRAIN_0391

>  <Canonical_Smiles>  (73) 
C(c1oc2c(cnc3ccccc23)c1)n4ncnn4

>  <Inhibition>  (73) 
66.1

>  <TDC_conf_true_inhibitor>  (73) 
1

>  <TDC_conf_non_inhibitor>  (73) 
0

>  <split>  (73) 
1

$$$$
73
     RDKit          3D

 37 39  0  0  0  0  0  0  0  0999 V2000
   -7.0931    0.2109    0.4624 F   0  0  0  0  0  0  0  0  0  0  0  0
   -6.2551    1.2790    0.3603 C   0  0  0  0  0  0  0  0  0  0  0  0
   -6.3758    1.7288   -0.9199 F   0  0  0  0  0  0  0  0  0  0  0  0
   -6.7897    2.2523    1.1488 F   0  0  0  0  0  0  0  0  0  0  0  0
   -4.8366    0.9281    0.7348 C   0  0  0  0  0  0  0  0  0  0  0  0
   -4.4152    0.9926    2.0722 C   0  0  0  0  0  0  0  0  0  0  0  0
   -3.1050    0.6590    2.4206 C   0  0  0  0  0  0  0  0  0  0  0  0
   -2.2052    0.2409    1.4400 C   0  0  0  0  0  0  0  0  0  0  0  0
   -2.6224    0.1410    0.1107 C   0  0  0  0  0  0  0  0  0  0  0  0
   -1.7900   -0.2390   -0.9185 O   0  0  0  0  0  0  0  0  0  0  0  0
   -0.9205   -1.2747   -0.6518 C   0  0  0  0  0  0  0  0  0  0  0  0
   -1.4061   -2.5580   -0.4238 C   0  0  0  0  0  0  0  0  0  0  0  0
   -0.4915   -3.5832   -0.2006 C   0  0  0  0  0  0  0  0  0  0  0  0
    0.8696   -3.2968   -0.2265 C   0  0  0  0  0  0  0  0  0  0  0  0
    1.2589   -1.9872   -0.4825 C   0  0  0  0  0  0  0  0  0  0  0  0
    0.3908   -0.9603   -0.7030 N   0  0  0  0  0  0  0  0  0  0  0  0
    2.7127   -1.6265   -0.5291 C   0  0  0  0  0  0  0  0  0  0  0  0
    3.5641   -2.4787   -0.3160 O   0  0  0  0  0  0  0  0  0  0  0  0
    2.9125   -0.2983   -0.8221 N   0  0  0  0  0  0  0  0  0  0  0  0
    4.1512    0.2608   -0.9137 C   0  0  0  0  0  0  0  0  0  0  0  0
    5.3369   -0.2716   -0.7557 N   0  0  0  0  0  0  0  0  0  0  0  0
    6.3470    0.6549   -0.9389 N   0  0  0  0  0  0  0  0  0  0  0  0
    5.8779    1.8544   -1.2312 C   0  0  0  0  0  0  0  0  0  0  0  0
    4.1531    1.9230   -1.2953 S   0  0  0  0  0  0  0  0  0  0  0  0
    6.6857    3.0785   -1.4906 C   0  0  0  0  0  0  0  0  0  0  0  0
    6.4233    4.0637   -0.5881 F   0  0  0  0  0  0  0  0  0  0  0  0
    8.0254    2.8560   -1.4374 F   0  0  0  0  0  0  0  0  0  0  0  0
    6.4329    3.6084   -2.7191 F   0  0  0  0  0  0  0  0  0  0  0  0
   -3.9261    0.4965   -0.2430 C   0  0  0  0  0  0  0  0  0  0  0  0
   -5.1072    1.3169    2.8491 H   0  0  0  0  0  0  0  0  0  0  0  0
   -2.7832    0.7307    3.4572 H   0  0  0  0  0  0  0  0  0  0  0  0
   -1.1819    0.0095    1.7249 H   0  0  0  0  0  0  0  0  0  0  0  0
   -2.4725   -2.7573   -0.4229 H   0  0  0  0  0  0  0  0  0  0  0  0
   -0.8354   -4.5973   -0.0139 H   0  0  0  0  0  0  0  0  0  0  0  0
    1.6084   -4.0751   -0.0580 H   0  0  0  0  0  0  0  0  0  0  0  0
    2.0946    0.2805   -0.9772 H   0  0  0  0  0  0  0  0  0  0  0  0
   -4.2324    0.4375   -1.2865 H   0  0  0  0  0  0  0  0  0  0  0  0
  1  2  1  0
  2  3  1  0
  2  4  1  0
  2  5  1  0
  5  6  2  0
  6  7  1  0
  7  8  2  0
  8  9  1  0
  9 10  1  0
 10 11  1  0
 11 12  2  0
 12 13  1  0
 13 14  2  0
 14 15  1  0
 15 16  2  0
 15 17  1  0
 17 18  2  0
 17 19  1  0
 19 20  1  0
 20 21  2  0
 21 22  1  0
 22 23  2  0
 23 24  1  0
 23 25  1  0
 25 26  1  0
 25 27  1  0
 25 28  1  0
  9 29  2  0
 29  5  1  0
 16 11  1  0
 24 20  1  0
  6 30  1  0
  7 31  1  0
  8 32  1  0
 12 33  1  0
 13 34  1  0
 14 35  1  0
 19 36  1  0
 29 37  1  0
M  END
>  <Unnamed: 0>  (74) 
407

>  <ID>  (74) 
TRAIN_0407

>  <Canonical_Smiles>  (74) 
FC(F)(F)c1cccc(Oc2cccc(n2)C(=O)Nc3nnc(s3)C(F)(F)F)c1

>  <Inhibition>  (74) 
36.3

>  <TDC_conf_true_inhibitor>  (74) 
0

>  <TDC_conf_non_inhibitor>  (74) 
1

>  <split>  (74) 
1

$$$$
74
     RDKit          3D

 49 52  0  0  0  0  0  0  0  0999 V2000
   -2.4552   -1.6005    3.9138 C   0  0  0  0  0  0  0  0  0  0  0  0
   -1.8671   -1.0025    2.6657 C   0  0  0  0  0  0  0  0  0  0  0  0
   -0.5138   -0.9049    2.6645 N   0  0  0  0  0  0  0  0  0  0  0  0
    0.0211   -0.4039    1.5434 C   0  0  0  0  0  0  0  0  0  0  0  0
    1.4673   -0.2272    1.2950 C   0  0  0  0  0  0  0  0  0  0  0  0
    2.3690   -0.5272    2.0539 O   0  0  0  0  0  0  0  0  0  0  0  0
    1.5780    0.3363    0.0261 N   0  0  0  0  0  0  0  0  0  0  0  0
    0.2853    0.4641   -0.6252 C   0  0  0  0  0  0  0  0  0  0  0  0
   -0.6697    0.0130    0.4241 C   0  0  0  0  0  0  0  0  0  0  0  0
   -2.0558   -0.0673    0.4171 C   0  0  0  0  0  0  0  0  0  0  0  0
   -2.6824   -0.5778    1.5851 C   0  0  0  0  0  0  0  0  0  0  0  0
   -4.1830   -0.7079    1.6675 C   0  0  0  0  0  0  0  0  0  0  0  0
   -4.5539   -2.0104    1.2433 O   0  0  0  0  0  0  0  0  0  0  0  0
   -2.8061    0.3484   -0.7744 C   0  0  0  0  0  0  0  0  0  0  0  0
   -3.3343   -0.6088   -1.6555 C   0  0  0  0  0  0  0  0  0  0  0  0
   -4.0407   -0.2176   -2.7959 C   0  0  0  0  0  0  0  0  0  0  0  0
   -4.2236    1.1363   -3.0647 C   0  0  0  0  0  0  0  0  0  0  0  0
   -5.0935    1.6201   -4.4673 Cl  0  0  0  0  0  0  0  0  0  0  0  0
   -3.7076    2.1017   -2.2032 C   0  0  0  0  0  0  0  0  0  0  0  0
   -3.0016    1.7087   -1.0626 C   0  0  0  0  0  0  0  0  0  0  0  0
    2.8261    0.5662   -0.6991 C   0  0  0  0  0  0  0  0  0  0  0  0
    3.4728   -0.7588   -1.1301 C   0  0  0  0  0  0  0  0  0  0  0  0
    4.8865   -0.5305   -1.6492 C   0  0  0  0  0  0  0  0  0  0  0  0
    5.8026    0.0881   -0.5924 C   0  0  0  0  0  0  0  0  0  0  0  0
    5.0539    0.7808    0.5456 C   0  0  0  0  0  0  0  0  0  0  0  0
    3.7955    1.4941    0.0604 C   0  0  0  0  0  0  0  0  0  0  0  0
   -3.0854   -2.4611    3.6703 H   0  0  0  0  0  0  0  0  0  0  0  0
   -1.6642   -1.9508    4.5857 H   0  0  0  0  0  0  0  0  0  0  0  0
   -3.0435   -0.8526    4.4537 H   0  0  0  0  0  0  0  0  0  0  0  0
    0.2593   -0.1912   -1.5011 H   0  0  0  0  0  0  0  0  0  0  0  0
    0.1335    1.5104   -0.9046 H   0  0  0  0  0  0  0  0  0  0  0  0
   -4.6930    0.0324    1.0432 H   0  0  0  0  0  0  0  0  0  0  0  0
   -4.5449   -0.5465    2.6877 H   0  0  0  0  0  0  0  0  0  0  0  0
   -5.5253   -2.0455    1.2611 H   0  0  0  0  0  0  0  0  0  0  0  0
   -3.2016   -1.6708   -1.4500 H   0  0  0  0  0  0  0  0  0  0  0  0
   -4.4440   -0.9733   -3.4649 H   0  0  0  0  0  0  0  0  0  0  0  0
   -3.8518    3.1587   -2.4113 H   0  0  0  0  0  0  0  0  0  0  0  0
   -2.6076    2.4732   -0.3951 H   0  0  0  0  0  0  0  0  0  0  0  0
    2.5379    1.1091   -1.6102 H   0  0  0  0  0  0  0  0  0  0  0  0
    3.5038   -1.4713   -0.2965 H   0  0  0  0  0  0  0  0  0  0  0  0
    2.8606   -1.2289   -1.9094 H   0  0  0  0  0  0  0  0  0  0  0  0
    5.3167   -1.4747   -2.0024 H   0  0  0  0  0  0  0  0  0  0  0  0
    4.8438    0.1341   -2.5215 H   0  0  0  0  0  0  0  0  0  0  0  0
    6.4496   -0.6876   -0.1648 H   0  0  0  0  0  0  0  0  0  0  0  0
    6.4732    0.8038   -1.0836 H   0  0  0  0  0  0  0  0  0  0  0  0
    4.7857    0.0369    1.3042 H   0  0  0  0  0  0  0  0  0  0  0  0
    5.7219    1.4953    1.0403 H   0  0  0  0  0  0  0  0  0  0  0  0
    4.1072    2.2986   -0.6194 H   0  0  0  0  0  0  0  0  0  0  0  0
    3.2980    1.9894    0.9027 H   0  0  0  0  0  0  0  0  0  0  0  0
  1  2  1  0
  2  3  2  0
  3  4  1  0
  4  5  1  0
  5  6  2  0
  5  7  1  0
  7  8  1  0
  8  9  1  0
  9 10  1  0
 10 11  2  0
 11 12  1  0
 12 13  1  0
 10 14  1  0
 14 15  2  0
 15 16  1  0
 16 17  2  0
 17 18  1  0
 17 19  1  0
 19 20  2  0
  7 21  1  0
 21 22  1  0
 22 23  1  0
 23 24  1  0
 24 25  1  0
 25 26  1  0
 11  2  1  0
  9  4  2  0
 20 14  1  0
 26 21  1  0
  1 27  1  0
  1 28  1  0
  1 29  1  0
  8 30  1  0
  8 31  1  0
 12 32  1  0
 12 33  1  0
 13 34  1  0
 15 35  1  0
 16 36  1  0
 19 37  1  0
 20 38  1  0
 21 39  1  0
 22 40  1  0
 22 41  1  0
 23 42  1  0
 23 43  1  0
 24 44  1  0
 24 45  1  0
 25 46  1  0
 25 47  1  0
 26 48  1  0
 26 49  1  0
M  END
>  <Unnamed: 0>  (75) 
411

>  <ID>  (75) 
TRAIN_0411

>  <Canonical_Smiles>  (75) 
Cc1nc2C(=O)N(Cc2c(c1CO)c3ccc(Cl)cc3)C4CCCCC4

>  <Inhibition>  (75) 
29.1

>  <TDC_conf_true_inhibitor>  (75) 
1

>  <TDC_conf_non_inhibitor>  (75) 
0

>  <split>  (75) 
1

$$$$
75
     RDKit          3D

 37 38  0  0  0  0  0  0  0  0999 V2000
    7.1885    0.8225   -0.1272 C   0  0  0  0  0  0  0  0  0  0  0  0
    5.8429    0.6493    0.5500 C   0  0  0  0  0  0  0  0  0  0  0  0
    4.8818    0.2908   -0.4510 O   0  0  0  0  0  0  0  0  0  0  0  0
    3.6204    0.1045    0.0245 C   0  0  0  0  0  0  0  0  0  0  0  0
    3.3091    0.2240    1.1990 O   0  0  0  0  0  0  0  0  0  0  0  0
    2.8197   -0.2288   -1.0306 N   0  0  0  0  0  0  0  0  0  0  0  0
    1.4440   -0.5113   -1.0296 C   0  0  0  0  0  0  0  0  0  0  0  0
    0.6431   -0.4769    0.1142 C   0  0  0  0  0  0  0  0  0  0  0  0
   -0.7276   -0.7718    0.0430 C   0  0  0  0  0  0  0  0  0  0  0  0
   -1.3139   -1.1115   -1.1747 C   0  0  0  0  0  0  0  0  0  0  0  0
   -2.6329   -1.4092   -1.3759 O   0  0  0  0  0  0  0  0  0  0  0  0
   -3.4587   -1.6666   -0.2375 C   0  0  0  0  0  0  0  0  0  0  0  0
   -4.0582   -0.4142    0.3621 C   0  0  0  0  0  0  0  0  0  0  0  0
   -4.4025    0.6834   -0.4398 C   0  0  0  0  0  0  0  0  0  0  0  0
   -4.9799    1.8220    0.1246 C   0  0  0  0  0  0  0  0  0  0  0  0
   -5.2307    1.8715    1.4942 C   0  0  0  0  0  0  0  0  0  0  0  0
   -4.9090    0.7813    2.3000 C   0  0  0  0  0  0  0  0  0  0  0  0
   -4.3311   -0.3582    1.7371 C   0  0  0  0  0  0  0  0  0  0  0  0
   -0.5067   -1.1315   -2.3142 C   0  0  0  0  0  0  0  0  0  0  0  0
   -1.0357   -1.4438   -3.5077 F   0  0  0  0  0  0  0  0  0  0  0  0
    0.8551   -0.8397   -2.2516 C   0  0  0  0  0  0  0  0  0  0  0  0
    7.9583    1.0977    0.5991 H   0  0  0  0  0  0  0  0  0  0  0  0
    7.4897   -0.1033   -0.6285 H   0  0  0  0  0  0  0  0  0  0  0  0
    7.1352    1.5988   -0.8977 H   0  0  0  0  0  0  0  0  0  0  0  0
    5.9075   -0.1448    1.3023 H   0  0  0  0  0  0  0  0  0  0  0  0
    5.5462    1.5896    1.0281 H   0  0  0  0  0  0  0  0  0  0  0  0
    3.3163   -0.2701   -1.9099 H   0  0  0  0  0  0  0  0  0  0  0  0
    1.0514   -0.2147    1.0866 H   0  0  0  0  0  0  0  0  0  0  0  0
   -1.3033   -0.7069    0.9604 H   0  0  0  0  0  0  0  0  0  0  0  0
   -2.9228   -2.2675    0.5081 H   0  0  0  0  0  0  0  0  0  0  0  0
   -4.2896   -2.2901   -0.5892 H   0  0  0  0  0  0  0  0  0  0  0  0
   -4.2174    0.6581   -1.5122 H   0  0  0  0  0  0  0  0  0  0  0  0
   -5.2348    2.6693   -0.5065 H   0  0  0  0  0  0  0  0  0  0  0  0
   -5.6805    2.7585    1.9324 H   0  0  0  0  0  0  0  0  0  0  0  0
   -5.1109    0.8178    3.3674 H   0  0  0  0  0  0  0  0  0  0  0  0
   -4.0939   -1.2021    2.3811 H   0  0  0  0  0  0  0  0  0  0  0  0
    1.4307   -0.8761   -3.1706 H   0  0  0  0  0  0  0  0  0  0  0  0
  1  2  1  0
  2  3  1  0
  3  4  1  0
  4  5  2  0
  4  6  1  0
  6  7  1  0
  7  8  2  0
  8  9  1  0
  9 10  2  0
 10 11  1  0
 11 12  1  0
 12 13  1  0
 13 14  2  0
 14 15  1  0
 15 16  2  0
 16 17  1  0
 17 18  2  0
 10 19  1  0
 19 20  1  0
 19 21  2  0
 21  7  1  0
 18 13  1  0
  1 22  1  0
  1 23  1  0
  1 24  1  0
  2 25  1  0
  2 26  1  0
  6 27  1  0
  8 28  1  0
  9 29  1  0
 12 30  1  0
 12 31  1  0
 14 32  1  0
 15 33  1  0
 16 34  1  0
 17 35  1  0
 18 36  1  0
 21 37  1  0
M  END
>  <Unnamed: 0>  (76) 
413

>  <ID>  (76) 
TRAIN_0413

>  <Canonical_Smiles>  (76) 
CCOC(=O)Nc1ccc(OCc2ccccc2)c(F)c1

>  <Inhibition>  (76) 
25.3

>  <TDC_conf_true_inhibitor>  (76) 
0

>  <TDC_conf_non_inhibitor>  (76) 
1

>  <split>  (76) 
1

$$$$
76
     RDKit          3D

 31 32  0  0  0  0  0  0  0  0999 V2000
    1.4013    1.5574    1.3000 C   0  0  0  0  0  0  0  0  0  0  0  0
    1.9806    0.4747    0.4345 C   0  0  0  0  0  0  0  0  0  0  0  0
    3.3500    0.4972    0.1215 C   0  0  0  0  0  0  0  0  0  0  0  0
    3.9404   -0.5156   -0.6420 C   0  0  0  0  0  0  0  0  0  0  0  0
    5.2801   -0.4096   -1.0337 N   0  0  0  0  0  0  0  0  0  0  0  0
    3.1277   -1.5147   -1.1801 C   0  0  0  0  0  0  0  0  0  0  0  0
    1.7604   -1.5484   -0.8931 C   0  0  0  0  0  0  0  0  0  0  0  0
    0.7402   -2.9925   -1.5865 Br  0  0  0  0  0  0  0  0  0  0  0  0
    1.1813   -0.5413   -0.1115 C   0  0  0  0  0  0  0  0  0  0  0  0
   -0.1581   -0.5667    0.1854 O   0  0  0  0  0  0  0  0  0  0  0  0
   -0.9067    0.1541   -0.8018 C   0  0  0  0  0  0  0  0  0  0  0  0
   -2.3581    0.1384   -0.3929 C   0  0  0  0  0  0  0  0  0  0  0  0
   -3.1292   -1.0189   -0.5734 C   0  0  0  0  0  0  0  0  0  0  0  0
   -4.4707   -1.0433   -0.1892 C   0  0  0  0  0  0  0  0  0  0  0  0
   -5.0525    0.0854    0.3847 C   0  0  0  0  0  0  0  0  0  0  0  0
   -4.2923    1.2374    0.5808 C   0  0  0  0  0  0  0  0  0  0  0  0
   -2.9502    1.2640    0.1971 C   0  0  0  0  0  0  0  0  0  0  0  0
    0.9566    2.3401    0.6779 H   0  0  0  0  0  0  0  0  0  0  0  0
    2.1737    2.0139    1.9287 H   0  0  0  0  0  0  0  0  0  0  0  0
    0.6386    1.1555    1.9751 H   0  0  0  0  0  0  0  0  0  0  0  0
    3.9677    1.3126    0.4926 H   0  0  0  0  0  0  0  0  0  0  0  0
    5.7057   -1.2921   -1.3008 H   0  0  0  0  0  0  0  0  0  0  0  0
    5.8604    0.1162   -0.3868 H   0  0  0  0  0  0  0  0  0  0  0  0
    3.5644   -2.2762   -1.8208 H   0  0  0  0  0  0  0  0  0  0  0  0
   -0.5536    1.1901   -0.8824 H   0  0  0  0  0  0  0  0  0  0  0  0
   -0.8075   -0.3095   -1.7917 H   0  0  0  0  0  0  0  0  0  0  0  0
   -2.6820   -1.9101   -1.0086 H   0  0  0  0  0  0  0  0  0  0  0  0
   -5.0595   -1.9453   -0.3332 H   0  0  0  0  0  0  0  0  0  0  0  0
   -6.0964    0.0649    0.6860 H   0  0  0  0  0  0  0  0  0  0  0  0
   -4.7441    2.1144    1.0364 H   0  0  0  0  0  0  0  0  0  0  0  0
   -2.3684    2.1676    0.3653 H   0  0  0  0  0  0  0  0  0  0  0  0
  1  2  1  0
  2  3  2  0
  3  4  1  0
  4  5  1  0
  4  6  2  0
  6  7  1  0
  7  8  1  0
  7  9  2  0
  9 10  1  0
 10 11  1  0
 11 12  1  0
 12 13  2  0
 13 14  1  0
 14 15  2  0
 15 16  1  0
 16 17  2  0
  9  2  1  0
 17 12  1  0
  1 18  1  0
  1 19  1  0
  1 20  1  0
  3 21  1  0
  5 22  1  0
  5 23  1  0
  6 24  1  0
 11 25  1  0
 11 26  1  0
 13 27  1  0
 14 28  1  0
 15 29  1  0
 16 30  1  0
 17 31  1  0
M  END
>  <Unnamed: 0>  (77) 
487

>  <ID>  (77) 
TRAIN_0487

>  <Canonical_Smiles>  (77) 
Cc1cc(N)cc(Br)c1OCc2ccccc2

>  <Inhibition>  (77) 
88.1

>  <TDC_conf_true_inhibitor>  (77) 
1

>  <TDC_conf_non_inhibitor>  (77) 
0

>  <split>  (77) 
1

$$$$
77
     RDKit          3D

 45 46  0  0  0  0  0  0  0  0999 V2000
    4.4546   -1.9426    2.3754 C   0  0  0  0  0  0  0  0  0  0  0  0
    3.7012   -1.0059    1.6153 O   0  0  0  0  0  0  0  0  0  0  0  0
    4.3457   -0.3733    0.5955 C   0  0  0  0  0  0  0  0  0  0  0  0
    5.6663   -0.5283    0.2268 C   0  0  0  0  0  0  0  0  0  0  0  0
    6.2470    0.1291   -0.7987 N   0  0  0  0  0  0  0  0  0  0  0  0
    5.4449    0.9699   -1.4640 C   0  0  0  0  0  0  0  0  0  0  0  0
    6.1451    1.8158   -2.7693 Cl  0  0  0  0  0  0  0  0  0  0  0  0
    4.1559    1.2180   -1.2193 N   0  0  0  0  0  0  0  0  0  0  0  0
    3.6356    0.5338   -0.1832 C   0  0  0  0  0  0  0  0  0  0  0  0
    2.3032    0.7217    0.1407 O   0  0  0  0  0  0  0  0  0  0  0  0
    1.5837    1.6678   -0.6619 C   0  0  0  0  0  0  0  0  0  0  0  0
    0.4002    2.1676    0.1726 C   0  0  0  0  0  0  0  0  0  0  0  0
   -0.6064    1.0566    0.4553 C   0  0  0  0  0  0  0  0  0  0  0  0
   -1.0161    0.3635   -0.7632 N   0  0  0  0  0  0  0  0  0  0  0  0
    0.0544   -0.0895   -1.6424 C   0  0  0  0  0  0  0  0  0  0  0  0
    1.0585    1.0169   -1.9448 C   0  0  0  0  0  0  0  0  0  0  0  0
   -2.2347   -0.3035   -0.8412 C   0  0  0  0  0  0  0  0  0  0  0  0
   -2.5153   -1.1003   -1.7276 O   0  0  0  0  0  0  0  0  0  0  0  0
   -3.0714    0.0339    0.1741 O   0  0  0  0  0  0  0  0  0  0  0  0
   -4.3975   -0.5440    0.2782 C   0  0  0  0  0  0  0  0  0  0  0  0
   -4.3309   -2.0614    0.4828 C   0  0  0  0  0  0  0  0  0  0  0  0
   -5.2692   -0.1632   -0.9235 C   0  0  0  0  0  0  0  0  0  0  0  0
   -4.9991    0.0936    1.5404 C   0  0  0  0  0  0  0  0  0  0  0  0
    4.8067   -2.7676    1.7472 H   0  0  0  0  0  0  0  0  0  0  0  0
    5.2895   -1.4529    2.8875 H   0  0  0  0  0  0  0  0  0  0  0  0
    3.7938   -2.3628    3.1396 H   0  0  0  0  0  0  0  0  0  0  0  0
    6.3398   -1.2019    0.7461 H   0  0  0  0  0  0  0  0  0  0  0  0
    2.2057    2.5413   -0.8955 H   0  0  0  0  0  0  0  0  0  0  0  0
    0.7569    2.5719    1.1271 H   0  0  0  0  0  0  0  0  0  0  0  0
   -0.1017    2.9813   -0.3657 H   0  0  0  0  0  0  0  0  0  0  0  0
   -0.1811    0.3049    1.1312 H   0  0  0  0  0  0  0  0  0  0  0  0
   -1.4738    1.4906    0.9629 H   0  0  0  0  0  0  0  0  0  0  0  0
   -0.3632   -0.4620   -2.5845 H   0  0  0  0  0  0  0  0  0  0  0  0
    0.5457   -0.9383   -1.1513 H   0  0  0  0  0  0  0  0  0  0  0  0
    0.5755    1.7841   -2.5628 H   0  0  0  0  0  0  0  0  0  0  0  0
    1.8783    0.5928   -2.5343 H   0  0  0  0  0  0  0  0  0  0  0  0
   -3.9763   -2.5805   -0.4126 H   0  0  0  0  0  0  0  0  0  0  0  0
   -3.6336   -2.3145    1.2894 H   0  0  0  0  0  0  0  0  0  0  0  0
   -5.3150   -2.4734    0.7308 H   0  0  0  0  0  0  0  0  0  0  0  0
   -6.3135   -0.4535   -0.7658 H   0  0  0  0  0  0  0  0  0  0  0  0
   -4.9316   -0.6475   -1.8445 H   0  0  0  0  0  0  0  0  0  0  0  0
   -5.2312    0.9169   -1.1044 H   0  0  0  0  0  0  0  0  0  0  0  0
   -6.0153   -0.2657    1.7335 H   0  0  0  0  0  0  0  0  0  0  0  0
   -5.0295    1.1857    1.4486 H   0  0  0  0  0  0  0  0  0  0  0  0
   -4.3815   -0.1251    2.4195 H   0  0  0  0  0  0  0  0  0  0  0  0
  1  2  1  0
  2  3  1  0
  3  4  2  0
  4  5  1  0
  5  6  2  0
  6  7  1  0
  6  8  1  0
  8  9  2  0
  9 10  1  0
 10 11  1  0
 11 12  1  0
 12 13  1  0
 13 14  1  0
 14 15  1  0
 15 16  1  0
 14 17  1  0
 17 18  2  0
 17 19  1  0
 19 20  1  0
 20 21  1  0
 20 22  1  0
 20 23  1  0
  9  3  1  0
 16 11  1  0
  1 24  1  0
  1 25  1  0
  1 26  1  0
  4 27  1  0
 11 28  1  0
 12 29  1  0
 12 30  1  0
 13 31  1  0
 13 32  1  0
 15 33  1  0
 15 34  1  0
 16 35  1  0
 16 36  1  0
 21 37  1  0
 21 38  1  0
 21 39  1  0
 22 40  1  0
 22 41  1  0
 22 42  1  0
 23 43  1  0
 23 44  1  0
 23 45  1  0
M  END
>  <Unnamed: 0>  (78) 
419

>  <ID>  (78) 
TRAIN_0419

>  <Canonical_Smiles>  (78) 
COc1cnc(Cl)nc1OC2CCN(CC2)C(=O)OC(C)(C)C

>  <Inhibition>  (78) 
39.6

>  <TDC_conf_true_inhibitor>  (78) 
1

>  <TDC_conf_non_inhibitor>  (78) 
0

>  <split>  (78) 
1

$$$$
78
     RDKit          3D

 57 61  0  0  0  0  0  0  0  0999 V2000
   -5.2160    1.8404    2.0276 O   0  0  0  0  0  0  0  0  0  0  0  0
   -4.1259    1.3404    1.8276 C   0  0  0  0  0  0  0  0  0  0  0  0
   -3.8118    0.0074    1.6609 N   0  0  0  0  0  0  0  0  0  0  0  0
   -4.7847   -1.0638    1.6377 C   0  0  0  0  0  0  0  0  0  0  0  0
   -5.0805   -1.5330    0.2422 C   0  0  0  0  0  0  0  0  0  0  0  0
   -5.7648   -0.7227   -0.6689 C   0  0  0  0  0  0  0  0  0  0  0  0
   -6.0084   -1.1858   -1.9580 C   0  0  0  0  0  0  0  0  0  0  0  0
   -5.5550   -2.4495   -2.2964 C   0  0  0  0  0  0  0  0  0  0  0  0
   -4.8879   -3.2611   -1.4474 N   0  0  0  0  0  0  0  0  0  0  0  0
   -4.6707   -2.7862   -0.1999 C   0  0  0  0  0  0  0  0  0  0  0  0
   -2.4048   -0.2042    1.3629 C   0  0  0  0  0  0  0  0  0  0  0  0
   -1.8371    1.1781    1.4219 C   0  0  0  0  0  0  0  0  0  0  0  0
   -0.5183    1.6036    1.2834 C   0  0  0  0  0  0  0  0  0  0  0  0
   -0.3014    2.9840    1.4703 C   0  0  0  0  0  0  0  0  0  0  0  0
   -1.3483    3.8878    1.7529 C   0  0  0  0  0  0  0  0  0  0  0  0
   -2.6571    3.4367    1.8742 C   0  0  0  0  0  0  0  0  0  0  0  0
   -2.8659    2.0833    1.7110 C   0  0  0  0  0  0  0  0  0  0  0  0
    0.5120    0.7124    1.0008 N   0  0  0  0  0  0  0  0  0  0  0  0
    0.3933   -0.0768   -0.2350 C   0  0  0  0  0  0  0  0  0  0  0  0
    1.6743   -0.0028   -1.0646 C   0  0  0  0  0  0  0  0  0  0  0  0
    2.9265   -0.4979   -0.2946 C   0  0  0  0  0  0  0  0  0  0  0  0
    2.7518   -0.2037    1.2173 C   0  0  0  0  0  0  0  0  0  0  0  0
    1.8743    1.0210    1.4507 C   0  0  0  0  0  0  0  0  0  0  0  0
    4.1694    0.0804   -0.8792 N   0  0  0  0  0  0  0  0  0  0  0  0
    5.3899   -0.2916   -0.1168 C   0  0  0  0  0  0  0  0  0  0  0  0
    6.6683   -0.2675   -0.9705 C   0  0  0  0  0  0  0  0  0  0  0  0
    6.6331   -1.2295   -2.0309 O   0  0  0  0  0  0  0  0  0  0  0  0
    5.3136   -1.4383   -2.5483 C   0  0  0  0  0  0  0  0  0  0  0  0
    4.3719   -0.2456   -2.3137 C   0  0  0  0  0  0  0  0  0  0  0  0
   -4.3982   -1.8804    2.2583 H   0  0  0  0  0  0  0  0  0  0  0  0
   -5.7166   -0.7210    2.1027 H   0  0  0  0  0  0  0  0  0  0  0  0
   -6.1060    0.2682   -0.3744 H   0  0  0  0  0  0  0  0  0  0  0  0
   -6.5389   -0.5745   -2.6794 H   0  0  0  0  0  0  0  0  0  0  0  0
   -5.7216   -2.8551   -3.2902 H   0  0  0  0  0  0  0  0  0  0  0  0
   -4.1341   -3.4691    0.4532 H   0  0  0  0  0  0  0  0  0  0  0  0
   -2.3144   -0.6378    0.3641 H   0  0  0  0  0  0  0  0  0  0  0  0
   -1.9731   -0.8590    2.1251 H   0  0  0  0  0  0  0  0  0  0  0  0
    0.6984    3.4003    1.3748 H   0  0  0  0  0  0  0  0  0  0  0  0
   -1.1251    4.9449    1.8769 H   0  0  0  0  0  0  0  0  0  0  0  0
   -3.4780    4.1085    2.0992 H   0  0  0  0  0  0  0  0  0  0  0  0
   -0.4354    0.2743   -0.8628 H   0  0  0  0  0  0  0  0  0  0  0  0
    0.1844   -1.1200    0.0300 H   0  0  0  0  0  0  0  0  0  0  0  0
    1.5283   -0.6005   -1.9716 H   0  0  0  0  0  0  0  0  0  0  0  0
    1.8182    1.0370   -1.3893 H   0  0  0  0  0  0  0  0  0  0  0  0
    2.9819   -1.5904   -0.4020 H   0  0  0  0  0  0  0  0  0  0  0  0
    3.7008   -0.0781    1.7442 H   0  0  0  0  0  0  0  0  0  0  0  0
    2.2796   -1.0788    1.6863 H   0  0  0  0  0  0  0  0  0  0  0  0
    2.2910    1.8865    0.9215 H   0  0  0  0  0  0  0  0  0  0  0  0
    1.8649    1.2488    2.5236 H   0  0  0  0  0  0  0  0  0  0  0  0
    5.5217    0.4090    0.7144 H   0  0  0  0  0  0  0  0  0  0  0  0
    5.2827   -1.3047    0.2928 H   0  0  0  0  0  0  0  0  0  0  0  0
    7.5392   -0.4984   -0.3482 H   0  0  0  0  0  0  0  0  0  0  0  0
    6.8348    0.7255   -1.4043 H   0  0  0  0  0  0  0  0  0  0  0  0
    4.9072   -2.3474   -2.0903 H   0  0  0  0  0  0  0  0  0  0  0  0
    5.4125   -1.6321   -3.6214 H   0  0  0  0  0  0  0  0  0  0  0  0
    4.8199    0.6431   -2.7775 H   0  0  0  0  0  0  0  0  0  0  0  0
    3.4364   -0.4143   -2.8519 H   0  0  0  0  0  0  0  0  0  0  0  0
  1  2  2  0
  2  3  1  0
  3  4  1  0
  4  5  1  0
  5  6  2  0
  6  7  1  0
  7  8  2  0
  8  9  1  0
  9 10  2  0
  3 11  1  0
 11 12  1  0
 12 13  2  0
 13 14  1  0
 14 15  2  0
 15 16  1  0
 16 17  2  0
 13 18  1  0
 18 19  1  0
 19 20  1  0
 20 21  1  0
 21 22  1  0
 22 23  1  0
 21 24  1  0
 24 25  1  0
 25 26  1  0
 26 27  1  0
 27 28  1  0
 28 29  1  0
 17  2  1  0
 10  5  1  0
 17 12  1  0
 23 18  1  0
 29 24  1  0
  4 30  1  0
  4 31  1  0
  6 32  1  0
  7 33  1  0
  8 34  1  0
 10 35  1  0
 11 36  1  0
 11 37  1  0
 14 38  1  0
 15 39  1  0
 16 40  1  0
 19 41  1  0
 19 42  1  0
 20 43  1  0
 20 44  1  0
 21 45  1  0
 22 46  1  0
 22 47  1  0
 23 48  1  0
 23 49  1  0
 25 50  1  0
 25 51  1  0
 26 52  1  0
 26 53  1  0
 28 54  1  0
 28 55  1  0
 29 56  1  0
 29 57  1  0
M  END
>  <Unnamed: 0>  (79) 
437

>  <ID>  (79) 
TRAIN_0437

>  <Canonical_Smiles>  (79) 
O=C1N(Cc2cccnc2)Cc3c(cccc13)N4CCC(CC4)N5CCOCC5

>  <Inhibition>  (79) 
79.7

>  <TDC_conf_true_inhibitor>  (79) 
1

>  <TDC_conf_non_inhibitor>  (79) 
0

>  <split>  (79) 
1

$$$$
79
     RDKit          3D

 36 37  0  0  0  0  0  0  0  0999 V2000
    0.1776   -0.1895    1.9482 O   0  0  0  0  0  0  0  0  0  0  0  0
   -0.1722    0.8561    1.0258 C   0  0  0  0  0  0  0  0  0  0  0  0
    0.8920    0.9048   -0.0759 C   0  0  0  0  0  0  0  0  0  0  0  0
    0.9140   -0.3617   -0.7503 O   0  0  0  0  0  0  0  0  0  0  0  0
    1.8670   -0.3989   -1.8160 C   0  0  0  0  0  0  0  0  0  0  0  0
    3.2757   -0.5940   -1.3131 C   0  0  0  0  0  0  0  0  0  0  0  0
    3.5646   -1.5876   -0.3664 C   0  0  0  0  0  0  0  0  0  0  0  0
    4.8707   -1.7783    0.0863 C   0  0  0  0  0  0  0  0  0  0  0  0
    5.9029   -0.9839   -0.4084 C   0  0  0  0  0  0  0  0  0  0  0  0
    5.6304   -0.0002   -1.3573 C   0  0  0  0  0  0  0  0  0  0  0  0
    4.3240    0.1927   -1.8106 C   0  0  0  0  0  0  0  0  0  0  0  0
   -1.5716    0.5954    0.4498 C   0  0  0  0  0  0  0  0  0  0  0  0
   -2.5370    0.8336    1.4822 O   0  0  0  0  0  0  0  0  0  0  0  0
   -3.8401    0.6034    1.0897 C   0  0  0  0  0  0  0  0  0  0  0  0
   -4.0859    0.3000   -0.2094 N   0  0  0  0  0  0  0  0  0  0  0  0
   -5.3744    0.0885   -0.5555 C   0  0  0  0  0  0  0  0  0  0  0  0
   -6.4354    0.1705    0.3315 C   0  0  0  0  0  0  0  0  0  0  0  0
   -6.1628    0.4898    1.6584 C   0  0  0  0  0  0  0  0  0  0  0  0
   -4.8439    0.7126    2.0499 C   0  0  0  0  0  0  0  0  0  0  0  0
   -4.4860    1.1503    3.8561 Br  0  0  0  0  0  0  0  0  0  0  0  0
    0.3667   -0.9719    1.3954 H   0  0  0  0  0  0  0  0  0  0  0  0
   -0.1685    1.7939    1.5918 H   0  0  0  0  0  0  0  0  0  0  0  0
    0.6665    1.7043   -0.7903 H   0  0  0  0  0  0  0  0  0  0  0  0
    1.8731    1.0864    0.3765 H   0  0  0  0  0  0  0  0  0  0  0  0
    1.6111   -1.2521   -2.4543 H   0  0  0  0  0  0  0  0  0  0  0  0
    1.7725    0.5034   -2.4320 H   0  0  0  0  0  0  0  0  0  0  0  0
    2.7664   -2.2141    0.0266 H   0  0  0  0  0  0  0  0  0  0  0  0
    5.0815   -2.5465    0.8258 H   0  0  0  0  0  0  0  0  0  0  0  0
    6.9198   -1.1326   -0.0550 H   0  0  0  0  0  0  0  0  0  0  0  0
    6.4369    0.6168   -1.7451 H   0  0  0  0  0  0  0  0  0  0  0  0
    4.1318    0.9629   -2.5539 H   0  0  0  0  0  0  0  0  0  0  0  0
   -1.7537    1.2835   -0.3848 H   0  0  0  0  0  0  0  0  0  0  0  0
   -1.6481   -0.4463    0.1133 H   0  0  0  0  0  0  0  0  0  0  0  0
   -5.5381   -0.1573   -1.6013 H   0  0  0  0  0  0  0  0  0  0  0  0
   -7.4514   -0.0096   -0.0026 H   0  0  0  0  0  0  0  0  0  0  0  0
   -6.9760    0.5622    2.3751 H   0  0  0  0  0  0  0  0  0  0  0  0
  1  2  1  0
  2  3  1  0
  3  4  1  0
  4  5  1  0
  5  6  1  0
  6  7  2  0
  7  8  1  0
  8  9  2  0
  9 10  1  0
 10 11  2  0
  2 12  1  0
 12 13  1  0
 13 14  1  0
 14 15  2  0
 15 16  1  0
 16 17  2  0
 17 18  1  0
 18 19  2  0
 19 20  1  0
 11  6  1  0
 19 14  1  0
  1 21  1  0
  2 22  1  0
  3 23  1  0
  3 24  1  0
  5 25  1  0
  5 26  1  0
  7 27  1  0
  8 28  1  0
  9 29  1  0
 10 30  1  0
 11 31  1  0
 12 32  1  0
 12 33  1  0
 16 34  1  0
 17 35  1  0
 18 36  1  0
M  END
>  <Unnamed: 0>  (80) 
438

>  <ID>  (80) 
TRAIN_0438

>  <Canonical_Smiles>  (80) 
OC(COCc1ccccc1)COc2ncccc2Br

>  <Inhibition>  (80) 
13.4

>  <TDC_conf_true_inhibitor>  (80) 
0

>  <TDC_conf_non_inhibitor>  (80) 
1

>  <split>  (80) 
1

$$$$
80
     RDKit          3D

 44 47  0  0  0  0  0  0  0  0999 V2000
   -5.4848   -2.3064   -1.0485 C   0  0  0  0  0  0  0  0  0  0  0  0
   -5.6949   -0.8566   -1.2340 C   0  0  0  0  0  0  0  0  0  0  0  0
   -6.7257   -0.2621   -1.8039 N   0  0  0  0  0  0  0  0  0  0  0  0
   -6.5109    1.0985   -1.7638 N   0  0  0  0  0  0  0  0  0  0  0  0
   -5.3559    1.3027   -1.1711 C   0  0  0  0  0  0  0  0  0  0  0  0
   -4.6360    2.4730   -0.8577 C   0  0  0  0  0  0  0  0  0  0  0  0
   -3.4546    2.3668   -0.2330 C   0  0  0  0  0  0  0  0  0  0  0  0
   -2.9794    0.9914    0.0911 C   0  0  0  0  0  0  0  0  0  0  0  0
   -3.6051   -0.1145   -0.1775 N   0  0  0  0  0  0  0  0  0  0  0  0
   -4.7960    0.0936   -0.8135 N   0  0  0  0  0  0  0  0  0  0  0  0
   -1.6976    0.9024    0.7688 C   0  0  0  0  0  0  0  0  0  0  0  0
   -0.7937    1.9016    1.2057 C   0  0  0  0  0  0  0  0  0  0  0  0
    0.2941    1.4043    1.7989 N   0  0  0  0  0  0  0  0  0  0  0  0
    0.1062    0.0742    1.7432 N   0  0  0  0  0  0  0  0  0  0  0  0
    1.0842   -0.8298    2.3205 C   0  0  0  0  0  0  0  0  0  0  0  0
    1.9913   -1.4755    1.2762 C   0  0  0  0  0  0  0  0  0  0  0  0
    3.1174   -0.6504    0.9709 O   0  0  0  0  0  0  0  0  0  0  0  0
    2.9484    0.1087   -0.2277 C   0  0  0  0  0  0  0  0  0  0  0  0
    4.0015    1.2208   -0.2832 C   0  0  0  0  0  0  0  0  0  0  0  0
    5.2625    0.8097   -1.0428 C   0  0  0  0  0  0  0  0  0  0  0  0
    5.4785   -0.6901   -0.9654 C   0  0  0  0  0  0  0  0  0  0  0  0
    4.2568   -1.4453   -1.4834 C   0  0  0  0  0  0  0  0  0  0  0  0
    3.0323   -0.7158   -1.3868 O   0  0  0  0  0  0  0  0  0  0  0  0
   -1.0715   -0.2728    1.1493 C   0  0  0  0  0  0  0  0  0  0  0  0
   -5.3986   -2.5533    0.0142 H   0  0  0  0  0  0  0  0  0  0  0  0
   -4.5743   -2.6352   -1.5589 H   0  0  0  0  0  0  0  0  0  0  0  0
   -6.3262   -2.8725   -1.4599 H   0  0  0  0  0  0  0  0  0  0  0  0
   -5.0559    3.4345   -1.1307 H   0  0  0  0  0  0  0  0  0  0  0  0
   -2.8737    3.2409    0.0223 H   0  0  0  0  0  0  0  0  0  0  0  0
   -0.8722    2.9776    1.1241 H   0  0  0  0  0  0  0  0  0  0  0  0
    0.5096   -1.6014    2.8457 H   0  0  0  0  0  0  0  0  0  0  0  0
    1.6638   -0.2673    3.0609 H   0  0  0  0  0  0  0  0  0  0  0  0
    2.4105   -2.3869    1.7170 H   0  0  0  0  0  0  0  0  0  0  0  0
    1.4488   -1.7788    0.3729 H   0  0  0  0  0  0  0  0  0  0  0  0
    1.9615    0.5795   -0.2254 H   0  0  0  0  0  0  0  0  0  0  0  0
    4.2629    1.5399    0.7328 H   0  0  0  0  0  0  0  0  0  0  0  0
    3.5807    2.0970   -0.7918 H   0  0  0  0  0  0  0  0  0  0  0  0
    6.1312    1.3479   -0.6479 H   0  0  0  0  0  0  0  0  0  0  0  0
    5.1625    1.1028   -2.0956 H   0  0  0  0  0  0  0  0  0  0  0  0
    5.6622   -0.9709    0.0793 H   0  0  0  0  0  0  0  0  0  0  0  0
    6.3720   -0.9916   -1.5230 H   0  0  0  0  0  0  0  0  0  0  0  0
    4.3939   -1.6837   -2.5437 H   0  0  0  0  0  0  0  0  0  0  0  0
    4.1459   -2.4003   -0.9577 H   0  0  0  0  0  0  0  0  0  0  0  0
   -1.3720   -1.3063    1.0388 H   0  0  0  0  0  0  0  0  0  0  0  0
  1  2  1  0
  2  3  2  0
  3  4  1  0
  4  5  2  0
  5  6  1  0
  6  7  2  0
  7  8  1  0
  8  9  2  0
  9 10  1  0
  8 11  1  0
 11 12  1  0
 12 13  2  0
 13 14  1  0
 14 15  1  0
 15 16  1  0
 16 17  1  0
 17 18  1  0
 18 19  1  0
 19 20  1  0
 20 21  1  0
 21 22  1  0
 22 23  1  0
 14 24  1  0
 10  2  1  0
 10  5  1  0
 24 11  2  0
 23 18  1  0
  1 25  1  0
  1 26  1  0
  1 27  1  0
  6 28  1  0
  7 29  1  0
 12 30  1  0
 15 31  1  0
 15 32  1  0
 16 33  1  0
 16 34  1  0
 18 35  1  0
 19 36  1  0
 19 37  1  0
 20 38  1  0
 20 39  1  0
 21 40  1  0
 21 41  1  0
 22 42  1  0
 22 43  1  0
 24 44  1  0
M  END
>  <Unnamed: 0>  (81) 
448

>  <ID>  (81) 
TRAIN_0448

>  <Canonical_Smiles>  (81) 
Cc1nnc2ccc(nn12)c3cnn(CCOC4CCCCO4)c3

>  <Inhibition>  (81) 
20.8

>  <TDC_conf_true_inhibitor>  (81) 
0

>  <TDC_conf_non_inhibitor>  (81) 
1

>  <split>  (81) 
1

$$$$
81
     RDKit          3D

 35 37  0  0  0  0  0  0  0  0999 V2000
    3.7433   -2.7647    1.0465 Cl  0  0  0  0  0  0  0  0  0  0  0  0
    4.0828   -1.0186    0.9974 C   0  0  0  0  0  0  0  0  0  0  0  0
    2.8048   -0.1992    0.8916 C   0  0  0  0  0  0  0  0  0  0  0  0
    2.0915   -0.3888   -0.4487 C   0  0  0  0  0  0  0  0  0  0  0  0
    0.9059    0.4442   -0.5657 N   0  0  0  0  0  0  0  0  0  0  0  0
   -0.2377    0.1504    0.2767 N   0  0  0  0  0  0  0  0  0  0  0  0
   -0.8926   -1.0499   -0.1261 C   0  0  0  0  0  0  0  0  0  0  0  0
   -1.6657   -1.1273   -1.2957 C   0  0  0  0  0  0  0  0  0  0  0  0
   -2.2926   -2.3238   -1.6543 C   0  0  0  0  0  0  0  0  0  0  0  0
   -2.1493   -3.4495   -0.8457 C   0  0  0  0  0  0  0  0  0  0  0  0
   -2.9213   -4.9220   -1.2873 Cl  0  0  0  0  0  0  0  0  0  0  0  0
   -1.3849   -3.3907    0.3177 C   0  0  0  0  0  0  0  0  0  0  0  0
   -0.7597   -2.1937    0.6758 C   0  0  0  0  0  0  0  0  0  0  0  0
   -0.9232    1.3962    0.3048 C   0  0  0  0  0  0  0  0  0  0  0  0
   -2.1578    1.6699    0.8715 C   0  0  0  0  0  0  0  0  0  0  0  0
   -2.6515    2.9794    0.7977 C   0  0  0  0  0  0  0  0  0  0  0  0
   -1.9136    3.9964    0.1633 C   0  0  0  0  0  0  0  0  0  0  0  0
   -0.6731    3.7182   -0.4108 C   0  0  0  0  0  0  0  0  0  0  0  0
   -0.2193    2.4157   -0.3245 C   0  0  0  0  0  0  0  0  0  0  0  0
    1.0020    1.8079   -0.8304 C   0  0  0  0  0  0  0  0  0  0  0  0
    1.9230    2.4250   -1.3340 O   0  0  0  0  0  0  0  0  0  0  0  0
    4.7505   -0.8271    0.1520 H   0  0  0  0  0  0  0  0  0  0  0  0
    4.6163   -0.7676    1.9190 H   0  0  0  0  0  0  0  0  0  0  0  0
    2.1301   -0.4490    1.7197 H   0  0  0  0  0  0  0  0  0  0  0  0
    3.0621    0.8601    1.0159 H   0  0  0  0  0  0  0  0  0  0  0  0
    2.7718   -0.1110   -1.2628 H   0  0  0  0  0  0  0  0  0  0  0  0
    1.8019   -1.4307   -0.6127 H   0  0  0  0  0  0  0  0  0  0  0  0
   -1.7755   -0.2567   -1.9378 H   0  0  0  0  0  0  0  0  0  0  0  0
   -2.8855   -2.3698   -2.5638 H   0  0  0  0  0  0  0  0  0  0  0  0
   -1.2696   -4.2686    0.9477 H   0  0  0  0  0  0  0  0  0  0  0  0
   -0.1625   -2.1516    1.5838 H   0  0  0  0  0  0  0  0  0  0  0  0
   -2.7289    0.8922    1.3687 H   0  0  0  0  0  0  0  0  0  0  0  0
   -3.6178    3.2149    1.2398 H   0  0  0  0  0  0  0  0  0  0  0  0
   -2.3159    5.0064    0.1200 H   0  0  0  0  0  0  0  0  0  0  0  0
   -0.0880    4.4834   -0.9091 H   0  0  0  0  0  0  0  0  0  0  0  0
  1  2  1  0
  2  3  1  0
  3  4  1  0
  4  5  1  0
  5  6  1  0
  6  7  1  0
  7  8  2  0
  8  9  1  0
  9 10  2  0
 10 11  1  0
 10 12  1  0
 12 13  2  0
  6 14  1  0
 14 15  2  0
 15 16  1  0
 16 17  2  0
 17 18  1  0
 18 19  2  0
 19 20  1  0
 20 21  2  0
 20  5  1  0
 13  7  1  0
 19 14  1  0
  2 22  1  0
  2 23  1  0
  3 24  1  0
  3 25  1  0
  4 26  1  0
  4 27  1  0
  8 28  1  0
  9 29  1  0
 12 30  1  0
 13 31  1  0
 15 32  1  0
 16 33  1  0
 17 34  1  0
 18 35  1  0
M  END
>  <Unnamed: 0>  (82) 
449

>  <ID>  (82) 
TRAIN_0449

>  <Canonical_Smiles>  (82) 
ClCCCN1N(c2ccc(Cl)cc2)c3ccccc3C1=O

>  <Inhibition>  (82) 
18.2

>  <TDC_conf_true_inhibitor>  (82) 
0

>  <TDC_conf_non_inhibitor>  (82) 
1

>  <split>  (82) 
1

$$$$
82
     RDKit          3D

 39 39  0  0  0  0  0  0  0  0999 V2000
    5.8190    0.9550    1.0652 C   0  0  0  0  0  0  0  0  0  0  0  0
    5.1683   -0.3440    1.5022 C   0  0  0  0  0  0  0  0  0  0  0  0
    3.7796   -0.3484    1.1412 O   0  0  0  0  0  0  0  0  0  0  0  0
    3.4928   -0.7865   -0.1217 C   0  0  0  0  0  0  0  0  0  0  0  0
    4.3382   -1.1578   -0.9269 O   0  0  0  0  0  0  0  0  0  0  0  0
    2.0590   -0.7346   -0.3382 C   0  0  0  0  0  0  0  0  0  0  0  0
    1.0534   -0.3289    0.5181 C   0  0  0  0  0  0  0  0  0  0  0  0
   -0.2576   -0.4189   -0.0585 C   0  0  0  0  0  0  0  0  0  0  0  0
   -1.5283   -0.1034    0.4837 C   0  0  0  0  0  0  0  0  0  0  0  0
   -2.7043   -0.2550   -0.2703 C   0  0  0  0  0  0  0  0  0  0  0  0
   -3.9364    0.0672    0.3441 N   0  0  0  0  0  0  0  0  0  0  0  0
   -5.1013    0.3499   -0.2945 C   0  0  0  0  0  0  0  0  0  0  0  0
   -5.2763    0.9253   -1.4308 N   0  0  0  0  0  0  0  0  0  0  0  0
   -6.1968    0.0105    0.4212 N   0  0  0  0  0  0  0  0  0  0  0  0
   -2.6045   -0.7523   -1.5685 C   0  0  0  0  0  0  0  0  0  0  0  0
   -1.3652   -1.0756   -2.1332 C   0  0  0  0  0  0  0  0  0  0  0  0
   -0.2004   -0.9007   -1.3656 C   0  0  0  0  0  0  0  0  0  0  0  0
    1.4187   -1.2271   -1.8441 S   0  0  0  0  0  0  0  0  0  0  0  0
    1.3243   -0.4377   -0.7507 O   0  0  0  0  0  0  0  0  0  0  0  0
    0.5593    0.2669    0.1237 C   0  0  0  0  0  0  0  0  0  0  0  0
    1.1068    1.0828    0.8556 O   0  0  0  0  0  0  0  0  0  0  0  0
   -0.9272   -0.1039    0.0987 C   0  0  0  0  0  0  0  0  0  0  0  0
   -1.7187    0.8498    0.6649 F   0  0  0  0  0  0  0  0  0  0  0  0
   -1.4026   -0.2903   -1.1656 F   0  0  0  0  0  0  0  0  0  0  0  0
   -1.1779   -1.2604    0.7757 F   0  0  0  0  0  0  0  0  0  0  0  0
    6.8629    0.9939    1.3890 H   0  0  0  0  0  0  0  0  0  0  0  0
    5.2857    1.8130    1.4876 H   0  0  0  0  0  0  0  0  0  0  0  0
    5.7866    1.0646   -0.0233 H   0  0  0  0  0  0  0  0  0  0  0  0
    5.6915   -1.2149    1.0908 H   0  0  0  0  0  0  0  0  0  0  0  0
    5.2145   -0.4289    2.5929 H   0  0  0  0  0  0  0  0  0  0  0  0
    1.2419    0.0234    1.5258 H   0  0  0  0  0  0  0  0  0  0  0  0
   -1.5859    0.2813    1.4993 H   0  0  0  0  0  0  0  0  0  0  0  0
   -4.0705   -0.5065    1.1696 H   0  0  0  0  0  0  0  0  0  0  0  0
   -4.3555    1.1741   -1.8063 H   0  0  0  0  0  0  0  0  0  0  0  0
   -7.0175    0.3358   -0.0853 H   0  0  0  0  0  0  0  0  0  0  0  0
   -6.2039    0.4150    1.3493 H   0  0  0  0  0  0  0  0  0  0  0  0
   -3.4984   -0.9247   -2.1659 H   0  0  0  0  0  0  0  0  0  0  0  0
   -1.3095   -1.4632   -3.1469 H   0  0  0  0  0  0  0  0  0  0  0  0
    2.2360   -0.1072   -0.6023 H   0  0  0  0  0  0  0  0  0  0  0  0
  1  2  1  0
  2  3  1  0
  3  4  1  0
  4  5  2  0
  4  6  1  0
  6  7  2  0
  7  8  1  0
  8  9  2  0
  9 10  1  0
 10 11  1  0
 11 12  1  0
 12 13  2  3
 12 14  1  0
 10 15  2  0
 15 16  1  0
 16 17  2  0
 17 18  1  0
 19 20  1  0
 20 21  2  0
 20 22  1  0
 22 23  1  0
 22 24  1  0
 22 25  1  0
 18  6  1  0
 17  8  1  0
  1 26  1  0
  1 27  1  0
  1 28  1  0
  2 29  1  0
  2 30  1  0
  7 31  1  0
  9 32  1  0
 11 33  1  0
 13 34  1  0
 14 35  1  0
 14 36  1  0
 15 37  1  0
 16 38  1  0
 19 39  1  0
M  END
>  <Unnamed: 0>  (83) 
461

>  <ID>  (83) 
TRAIN_0461

>  <Canonical_Smiles>  (83) 
CCOC(=O)c1cc2cc(NC(=N)N)ccc2s1.OC(=O)C(F)(F)F

>  <Inhibition>  (83) 
30.1

>  <TDC_conf_true_inhibitor>  (83) 
0

>  <TDC_conf_non_inhibitor>  (83) 
1

>  <split>  (83) 
1

$$$$
83
     RDKit          3D

 26 27  0  0  0  0  0  0  0  0999 V2000
    3.0285   -3.6916    0.2688 N   0  0  0  0  0  0  0  0  0  0  0  0
    2.9902   -2.3901    0.6365 C   0  0  0  0  0  0  0  0  0  0  0  0
    2.1636   -1.4605    0.3119 N   0  0  0  0  0  0  0  0  0  0  0  0
    1.1454   -1.7414   -0.5691 C   0  0  0  0  0  0  0  0  0  0  0  0
    1.0852   -2.7412   -1.2811 O   0  0  0  0  0  0  0  0  0  0  0  0
    0.1504   -0.6750   -0.5562 C   0  0  0  0  0  0  0  0  0  0  0  0
    0.1155    0.4897    0.1873 C   0  0  0  0  0  0  0  0  0  0  0  0
   -1.0400    1.3106   -0.0705 C   0  0  0  0  0  0  0  0  0  0  0  0
   -1.4563    2.5588    0.4661 C   0  0  0  0  0  0  0  0  0  0  0  0
   -2.6455    3.1709    0.0455 C   0  0  0  0  0  0  0  0  0  0  0  0
   -3.4406    2.5574   -0.9117 C   0  0  0  0  0  0  0  0  0  0  0  0
   -3.0572    1.3343   -1.4536 C   0  0  0  0  0  0  0  0  0  0  0  0
   -3.8865    0.7754   -2.3980 O   0  0  0  0  0  0  0  0  0  0  0  0
   -1.8617    0.7145   -1.0337 C   0  0  0  0  0  0  0  0  0  0  0  0
   -1.2159   -0.7862   -1.5756 S   0  0  0  0  0  0  0  0  0  0  0  0
   -0.6282    3.1802    1.4542 C   0  0  0  0  0  0  0  0  0  0  0  0
    0.0425    3.6834    2.2569 N   0  0  0  0  0  0  0  0  0  0  0  0
    4.0074   -2.1315    1.4905 N   0  0  0  0  0  0  0  0  0  0  0  0
    2.4035   -3.8903   -0.5163 H   0  0  0  0  0  0  0  0  0  0  0  0
    3.9668   -4.0105    0.0556 H   0  0  0  0  0  0  0  0  0  0  0  0
    0.8956    0.7486    0.8964 H   0  0  0  0  0  0  0  0  0  0  0  0
   -2.9524    4.1273    0.4650 H   0  0  0  0  0  0  0  0  0  0  0  0
   -4.3640    3.0271   -1.2421 H   0  0  0  0  0  0  0  0  0  0  0  0
   -3.4806   -0.0663   -2.6750 H   0  0  0  0  0  0  0  0  0  0  0  0
    4.1372   -2.8657    2.1771 H   0  0  0  0  0  0  0  0  0  0  0  0
    3.8973   -1.2279    1.9398 H   0  0  0  0  0  0  0  0  0  0  0  0
  1  2  1  0
  2  3  2  3
  3  4  1  0
  4  5  2  0
  4  6  1  0
  6  7  2  0
  7  8  1  0
  8  9  2  0
  9 10  1  0
 10 11  2  0
 11 12  1  0
 12 13  1  0
 12 14  2  0
 14 15  1  0
  9 16  1  0
 16 17  3  0
  2 18  1  0
 15  6  1  0
 14  8  1  0
  1 19  1  0
  1 20  1  0
  7 21  1  0
 10 22  1  0
 11 23  1  0
 13 24  1  0
 18 25  1  0
 18 26  1  0
M  END
>  <Unnamed: 0>  (84) 
674

>  <ID>  (84) 
TRAIN_0674

>  <Canonical_Smiles>  (84) 
NC(=NC(=O)c1cc2c(ccc(O)c2s1)C#N)N

>  <Inhibition>  (84) 
35.0

>  <TDC_conf_true_inhibitor>  (84) 
0

>  <TDC_conf_non_inhibitor>  (84) 
1

>  <split>  (84) 
1

$$$$
84
     RDKit          3D

 54 55  0  0  0  0  0  0  0  0999 V2000
    2.5491   -0.5377    1.7372 C   0  0  0  0  0  0  0  0  0  0  0  0
    1.5289   -0.4181    0.7054 N   0  0  0  0  0  0  0  0  0  0  0  0
    0.2183   -0.7372    1.1285 C   0  0  0  0  0  0  0  0  0  0  0  0
   -0.0890   -1.0971    2.2629 O   0  0  0  0  0  0  0  0  0  0  0  0
   -0.8015   -0.6500    0.0367 C   0  0  1  0  0  0  0  0  0  0  0  0
   -2.2672   -0.5722    0.4028 C   0  0  0  0  0  0  0  0  0  0  0  0
   -2.8381    0.1704   -0.7220 N   0  0  0  0  0  0  0  0  0  0  0  0
   -1.7976    0.7780   -1.5440 C   0  0  0  0  0  0  0  0  0  0  0  0
   -0.5705    0.6808   -0.6523 C   0  0  0  0  0  0  0  0  0  0  0  0
    0.7123    0.5782   -1.2844 N   0  0  0  0  0  0  0  0  0  0  0  0
    1.7955    0.1357   -0.5612 C   0  0  0  0  0  0  0  0  0  0  0  0
    2.9341    0.3169   -1.1588 N   0  0  0  0  0  0  0  0  0  0  0  0
    4.0957   -0.2158   -0.7024 C   0  0  0  0  0  0  0  0  0  0  0  0
    4.2914   -1.4012   -0.4828 O   0  0  0  0  0  0  0  0  0  0  0  0
    5.0178    0.7705   -0.5730 O   0  0  0  0  0  0  0  0  0  0  0  0
    6.3802    0.4704   -0.1814 C   0  0  0  0  0  0  0  0  0  0  0  0
    7.0917    1.8323   -0.1720 C   0  0  0  0  0  0  0  0  0  0  0  0
    6.4403   -0.1206    1.2315 C   0  0  0  0  0  0  0  0  0  0  0  0
    7.0704   -0.4335   -1.2092 C   0  0  0  0  0  0  0  0  0  0  0  0
   -4.1714    0.3187   -0.9944 C   0  0  0  0  0  0  0  0  0  0  0  0
   -4.5916    0.9546   -1.9509 O   0  0  0  0  0  0  0  0  0  0  0  0
   -4.9379   -0.3164   -0.0748 O   0  0  0  0  0  0  0  0  0  0  0  0
   -6.3852   -0.2933   -0.1647 C   0  0  0  0  0  0  0  0  0  0  0  0
   -6.8623   -1.1161    1.0419 C   0  0  0  0  0  0  0  0  0  0  0  0
   -6.8752   -0.9758   -1.4464 C   0  0  0  0  0  0  0  0  0  0  0  0
   -6.9293    1.1331   -0.0297 C   0  0  0  0  0  0  0  0  0  0  0  0
    3.3010    0.2467    1.6312 H   0  0  0  0  0  0  0  0  0  0  0  0
    2.1200   -0.4383    2.7390 H   0  0  0  0  0  0  0  0  0  0  0  0
    3.0087   -1.5269    1.6653 H   0  0  0  0  0  0  0  0  0  0  0  0
   -0.6394   -1.4977   -0.6458 H   0  0  0  0  0  0  0  0  0  0  0  0
   -2.7362   -1.5569    0.4909 H   0  0  0  0  0  0  0  0  0  0  0  0
   -2.4534   -0.0063    1.3222 H   0  0  0  0  0  0  0  0  0  0  0  0
   -1.6997    0.1926   -2.4653 H   0  0  0  0  0  0  0  0  0  0  0  0
   -2.0564    1.8086   -1.8054 H   0  0  0  0  0  0  0  0  0  0  0  0
   -0.5675    1.5143    0.0651 H   0  0  0  0  0  0  0  0  0  0  0  0
    0.9412    1.2046   -2.0500 H   0  0  0  0  0  0  0  0  0  0  0  0
    7.0409    2.3053   -1.1597 H   0  0  0  0  0  0  0  0  0  0  0  0
    6.6033    2.5222    0.5261 H   0  0  0  0  0  0  0  0  0  0  0  0
    8.1449    1.7397    0.1133 H   0  0  0  0  0  0  0  0  0  0  0  0
    7.4739   -0.2045    1.5843 H   0  0  0  0  0  0  0  0  0  0  0  0
    5.8820    0.5035    1.9382 H   0  0  0  0  0  0  0  0  0  0  0  0
    5.9969   -1.1197    1.2772 H   0  0  0  0  0  0  0  0  0  0  0  0
    6.6526   -1.4447   -1.2109 H   0  0  0  0  0  0  0  0  0  0  0  0
    6.9414   -0.0384   -2.2231 H   0  0  0  0  0  0  0  0  0  0  0  0
    8.1427   -0.5234   -1.0043 H   0  0  0  0  0  0  0  0  0  0  0  0
   -7.9547   -1.1754    1.0882 H   0  0  0  0  0  0  0  0  0  0  0  0
   -6.4615   -2.1358    1.0011 H   0  0  0  0  0  0  0  0  0  0  0  0
   -6.4992   -0.6792    1.9796 H   0  0  0  0  0  0  0  0  0  0  0  0
   -6.6239   -0.3969   -2.3402 H   0  0  0  0  0  0  0  0  0  0  0  0
   -7.9626   -1.1073   -1.4370 H   0  0  0  0  0  0  0  0  0  0  0  0
   -6.4062   -1.9588   -1.5670 H   0  0  0  0  0  0  0  0  0  0  0  0
   -6.6795    1.7504   -0.8978 H   0  0  0  0  0  0  0  0  0  0  0  0
   -8.0201    1.1354    0.0702 H   0  0  0  0  0  0  0  0  0  0  0  0
   -6.4981    1.6324    0.8453 H   0  0  0  0  0  0  0  0  0  0  0  0
  1  2  1  0
  2  3  1  0
  3  4  2  0
  3  5  1  0
  5  6  1  0
  6  7  1  0
  7  8  1  0
  8  9  1  0
  9 10  1  0
 10 11  1  0
 11 12  2  0
 12 13  1  0
 13 14  2  0
 13 15  1  0
 15 16  1  0
 16 17  1  0
 16 18  1  0
 16 19  1  0
  7 20  1  0
 20 21  2  0
 20 22  1  0
 22 23  1  0
 23 24  1  0
 23 25  1  0
 23 26  1  0
 11  2  1  0
  9  5  1  0
  1 27  1  0
  1 28  1  0
  1 29  1  0
  5 30  1  6
  6 31  1  0
  6 32  1  0
  8 33  1  0
  8 34  1  0
  9 35  1  0
 10 36  1  0
 17 37  1  0
 17 38  1  0
 17 39  1  0
 18 40  1  0
 18 41  1  0
 18 42  1  0
 19 43  1  0
 19 44  1  0
 19 45  1  0
 24 46  1  0
 24 47  1  0
 24 48  1  0
 25 49  1  0
 25 50  1  0
 25 51  1  0
 26 52  1  0
 26 53  1  0
 26 54  1  0
M  END
>  <Unnamed: 0>  (85) 
462

>  <ID>  (85) 
TRAIN_0462

>  <Canonical_Smiles>  (85) 
CN1C(=O)[C@H]2CN(CC2N/C/1=N/C(=O)OC(C)(C)C)C(=O)OC(C)(C)C

>  <Inhibition>  (85) 
28.1

>  <TDC_conf_true_inhibitor>  (85) 
0

>  <TDC_conf_non_inhibitor>  (85) 
1

>  <split>  (85) 
1

$$$$
85
     RDKit          3D

 35 37  0  0  0  0  0  0  0  0999 V2000
    5.7135    1.4349    0.1448 C   0  0  0  0  0  0  0  0  0  0  0  0
    4.9371    1.1831   -1.1341 C   0  0  0  0  0  0  0  0  0  0  0  0
    3.5442    1.0082   -0.8417 O   0  0  0  0  0  0  0  0  0  0  0  0
    3.1603   -0.2623   -0.5202 C   0  0  0  0  0  0  0  0  0  0  0  0
    3.9172   -1.2242   -0.4648 O   0  0  0  0  0  0  0  0  0  0  0  0
    1.7320   -0.3481   -0.2425 C   0  0  0  0  0  0  0  0  0  0  0  0
    0.7488    0.6831   -0.2708 C   0  0  0  0  0  0  0  0  0  0  0  0
   -0.4820    0.1392    0.0610 C   0  0  0  0  0  0  0  0  0  0  0  0
   -1.7516    0.7966    0.1520 C   0  0  0  0  0  0  0  0  0  0  0  0
   -1.8781    2.1609    0.1369 N   0  0  0  0  0  0  0  0  0  0  0  0
   -3.1400    2.5987    0.2327 N   0  0  0  0  0  0  0  0  0  0  0  0
   -3.8509    1.4833    0.3227 C   0  0  0  0  0  0  0  0  0  0  0  0
   -5.1851    1.4895    0.4456 N   0  0  0  0  0  0  0  0  0  0  0  0
   -3.0453    0.3134    0.2675 C   0  0  0  0  0  0  0  0  0  0  0  0
   -3.5240   -1.0950    0.3553 C   0  0  0  0  0  0  0  0  0  0  0  0
   -2.5400   -2.1543   -0.1316 C   0  0  0  0  0  0  0  0  0  0  0  0
   -1.2621   -2.1849    0.6996 C   0  0  0  0  0  0  0  0  0  0  0  0
   -0.2713   -1.2016    0.2926 N   0  0  0  0  0  0  0  0  0  0  0  0
    1.0572   -1.5006    0.1132 C   0  0  0  0  0  0  0  0  0  0  0  0
    5.2996    2.2940    0.6828 H   0  0  0  0  0  0  0  0  0  0  0  0
    6.7674    1.6293   -0.0733 H   0  0  0  0  0  0  0  0  0  0  0  0
    5.6492    0.5756    0.8197 H   0  0  0  0  0  0  0  0  0  0  0  0
    5.3406    0.3275   -1.6878 H   0  0  0  0  0  0  0  0  0  0  0  0
    5.0184    2.0558   -1.7904 H   0  0  0  0  0  0  0  0  0  0  0  0
    0.9409    1.7185   -0.5218 H   0  0  0  0  0  0  0  0  0  0  0  0
   -1.1380    2.8488    0.0717 H   0  0  0  0  0  0  0  0  0  0  0  0
   -5.7260    0.7101    0.0952 H   0  0  0  0  0  0  0  0  0  0  0  0
   -5.6224    2.3855    0.2562 H   0  0  0  0  0  0  0  0  0  0  0  0
   -4.4414   -1.1972   -0.2381 H   0  0  0  0  0  0  0  0  0  0  0  0
   -3.8018   -1.3056    1.3960 H   0  0  0  0  0  0  0  0  0  0  0  0
   -3.0329   -3.1305   -0.0433 H   0  0  0  0  0  0  0  0  0  0  0  0
   -2.3106   -2.0084   -1.1947 H   0  0  0  0  0  0  0  0  0  0  0  0
   -1.4560   -2.0273    1.7668 H   0  0  0  0  0  0  0  0  0  0  0  0
   -0.7974   -3.1722    0.5903 H   0  0  0  0  0  0  0  0  0  0  0  0
    1.4308   -2.5080    0.2529 H   0  0  0  0  0  0  0  0  0  0  0  0
  1  2  1  0
  2  3  1  0
  3  4  1  0
  4  5  2  0
  4  6  1  0
  6  7  1  0
  7  8  2  0
  8  9  1  0
  9 10  1  0
 10 11  1  0
 11 12  2  0
 12 13  1  0
 12 14  1  0
 14 15  1  0
 15 16  1  0
 16 17  1  0
 17 18  1  0
 18 19  1  0
 19  6  2  0
 18  8  1  0
 14  9  2  0
  1 20  1  0
  1 21  1  0
  1 22  1  0
  2 23  1  0
  2 24  1  0
  7 25  1  0
 10 26  1  0
 13 27  1  0
 13 28  1  0
 15 29  1  0
 15 30  1  0
 16 31  1  0
 16 32  1  0
 17 33  1  0
 17 34  1  0
 19 35  1  0
M  END
>  <Unnamed: 0>  (86) 
468

>  <ID>  (86) 
TRAIN_0468

>  <Canonical_Smiles>  (86) 
CCOC(=O)c1cc2c3[nH]nc(N)c3CCCn2c1

>  <Inhibition>  (86) 
21.5

>  <TDC_conf_true_inhibitor>  (86) 
0

>  <TDC_conf_non_inhibitor>  (86) 
1

>  <split>  (86) 
1

$$$$
86
     RDKit          3D

 54 55  0  0  0  0  0  0  0  0999 V2000
   -2.0799   -4.0451    0.2576 C   0  0  0  0  0  0  0  0  0  0  0  0
   -2.5686   -2.6764   -0.1779 C   0  0  0  0  0  0  0  0  0  0  0  0
   -1.5330   -2.0649   -0.9485 O   0  0  0  0  0  0  0  0  0  0  0  0
   -1.7709   -0.6759   -1.2689 C   0  0  0  0  0  0  0  0  0  0  0  0
   -0.6731   -0.2635   -2.3173 C   0  0  0  0  0  0  0  0  0  0  0  0
    0.6975   -0.3607   -1.8366 N   0  0  0  0  0  0  0  0  0  0  0  0
    1.4180    0.7330   -1.4711 C   0  0  0  0  0  0  0  0  0  0  0  0
    1.1310    1.8922   -1.7255 O   0  0  0  0  0  0  0  0  0  0  0  0
    2.5002    0.3294   -0.7676 O   0  0  0  0  0  0  0  0  0  0  0  0
    3.2959    1.4114   -0.2801 C   0  0  0  0  0  0  0  0  0  0  0  0
    4.3252    0.8455    0.6662 C   0  0  0  0  0  0  0  0  0  0  0  0
    3.9311    0.3356    1.9131 C   0  0  0  0  0  0  0  0  0  0  0  0
    4.8767   -0.1904    2.7953 C   0  0  0  0  0  0  0  0  0  0  0  0
    6.2243   -0.2156    2.4389 C   0  0  0  0  0  0  0  0  0  0  0  0
    6.6266    0.2829    1.2003 C   0  0  0  0  0  0  0  0  0  0  0  0
    5.6818    0.8091    0.3160 C   0  0  0  0  0  0  0  0  0  0  0  0
   -3.0983   -0.4898   -1.7957 O   0  0  0  0  0  0  0  0  0  0  0  0
   -3.3457   -1.0655   -3.0731 C   0  0  0  0  0  0  0  0  0  0  0  0
   -4.8429   -1.0380   -3.3185 C   0  0  0  0  0  0  0  0  0  0  0  0
   -1.6272    0.2152   -0.0216 C   0  0  0  0  0  0  0  0  0  0  0  0
   -0.7834   -0.1446    1.0461 C   0  0  0  0  0  0  0  0  0  0  0  0
   -0.6287    0.6875    2.1597 C   0  0  0  0  0  0  0  0  0  0  0  0
   -1.3162    1.9045    2.2424 C   0  0  0  0  0  0  0  0  0  0  0  0
   -1.0971    2.8150    3.4212 C   0  0  0  0  0  0  0  0  0  0  0  0
   -2.2719    3.5593    3.7218 O   0  0  0  0  0  0  0  0  0  0  0  0
   -2.1430    2.2780    1.1761 C   0  0  0  0  0  0  0  0  0  0  0  0
   -2.2980    1.4464    0.0622 C   0  0  0  0  0  0  0  0  0  0  0  0
   -1.8346   -4.6644   -0.6123 H   0  0  0  0  0  0  0  0  0  0  0  0
   -1.1657   -3.9559    0.8556 H   0  0  0  0  0  0  0  0  0  0  0  0
   -2.8422   -4.5580    0.8522 H   0  0  0  0  0  0  0  0  0  0  0  0
   -2.8176   -2.0819    0.7064 H   0  0  0  0  0  0  0  0  0  0  0  0
   -3.4697   -2.7951   -0.7879 H   0  0  0  0  0  0  0  0  0  0  0  0
   -0.7110   -0.9431   -3.1756 H   0  0  0  0  0  0  0  0  0  0  0  0
   -0.8681    0.7483   -2.6917 H   0  0  0  0  0  0  0  0  0  0  0  0
    1.0124   -1.2437   -1.4583 H   0  0  0  0  0  0  0  0  0  0  0  0
    2.6793    2.1415    0.2606 H   0  0  0  0  0  0  0  0  0  0  0  0
    3.7820    1.9151   -1.1247 H   0  0  0  0  0  0  0  0  0  0  0  0
    2.8806    0.3441    2.1969 H   0  0  0  0  0  0  0  0  0  0  0  0
    4.5620   -0.5829    3.7588 H   0  0  0  0  0  0  0  0  0  0  0  0
    6.9613   -0.6257    3.1251 H   0  0  0  0  0  0  0  0  0  0  0  0
    7.6776    0.2615    0.9212 H   0  0  0  0  0  0  0  0  0  0  0  0
    6.0124    1.1895   -0.6485 H   0  0  0  0  0  0  0  0  0  0  0  0
   -2.8482   -0.4753   -3.8491 H   0  0  0  0  0  0  0  0  0  0  0  0
   -2.9848   -2.0983   -3.1154 H   0  0  0  0  0  0  0  0  0  0  0  0
   -5.2188   -0.0098   -3.2859 H   0  0  0  0  0  0  0  0  0  0  0  0
   -5.3718   -1.5954   -2.5382 H   0  0  0  0  0  0  0  0  0  0  0  0
   -5.0877   -1.4708   -4.2924 H   0  0  0  0  0  0  0  0  0  0  0  0
   -0.2284   -1.0803    1.0129 H   0  0  0  0  0  0  0  0  0  0  0  0
    0.0371    0.3769    2.9620 H   0  0  0  0  0  0  0  0  0  0  0  0
   -0.2814    3.5126    3.1965 H   0  0  0  0  0  0  0  0  0  0  0  0
   -0.8359    2.2328    4.3127 H   0  0  0  0  0  0  0  0  0  0  0  0
   -2.0451    4.1413    4.4654 H   0  0  0  0  0  0  0  0  0  0  0  0
   -2.6757    3.2269    1.2075 H   0  0  0  0  0  0  0  0  0  0  0  0
   -2.9484    1.7752   -0.7467 H   0  0  0  0  0  0  0  0  0  0  0  0
  1  2  1  0
  2  3  1  0
  3  4  1  0
  4  5  1  0
  5  6  1  0
  6  7  1  0
  7  8  2  0
  7  9  1  0
  9 10  1  0
 10 11  1  0
 11 12  2  0
 12 13  1  0
 13 14  2  0
 14 15  1  0
 15 16  2  0
  4 17  1  0
 17 18  1  0
 18 19  1  0
  4 20  1  0
 20 21  2  0
 21 22  1  0
 22 23  2  0
 23 24  1  0
 24 25  1  0
 23 26  1  0
 26 27  2  0
 16 11  1  0
 27 20  1  0
  1 28  1  0
  1 29  1  0
  1 30  1  0
  2 31  1  0
  2 32  1  0
  5 33  1  0
  5 34  1  0
  6 35  1  0
 10 36  1  0
 10 37  1  0
 12 38  1  0
 13 39  1  0
 14 40  1  0
 15 41  1  0
 16 42  1  0
 18 43  1  0
 18 44  1  0
 19 45  1  0
 19 46  1  0
 19 47  1  0
 21 48  1  0
 22 49  1  0
 24 50  1  0
 24 51  1  0
 25 52  1  0
 26 53  1  0
 27 54  1  0
M  END
>  <Unnamed: 0>  (87) 
471

>  <ID>  (87) 
TRAIN_0471

>  <Canonical_Smiles>  (87) 
CCOC(CNC(=O)OCc1ccccc1)(OCC)c2ccc(CO)cc2

>  <Inhibition>  (87) 
51.0

>  <TDC_conf_true_inhibitor>  (87) 
1

>  <TDC_conf_non_inhibitor>  (87) 
0

>  <split>  (87) 
1

$$$$
87
     RDKit          3D

 34 35  0  0  0  0  0  0  0  0999 V2000
   -4.9672    1.8606   -0.1493 C   0  0  0  0  0  0  0  0  0  0  0  0
   -3.7696    1.0551    0.3281 C   0  0  0  0  0  0  0  0  0  0  0  0
   -3.2211    0.1569   -0.7830 C   0  0  0  0  0  0  0  0  0  0  0  0
   -2.0601   -0.6111   -0.3061 N   0  0  0  0  0  0  0  0  0  0  0  0
   -2.2496   -1.8200    0.3143 C   0  0  0  0  0  0  0  0  0  0  0  0
   -1.3657   -2.6114    0.7941 N   0  0  0  0  0  0  0  0  0  0  0  0
   -0.0434   -2.2465    0.6863 C   0  0  0  0  0  0  0  0  0  0  0  0
    0.8563   -2.9945    1.0556 O   0  0  0  0  0  0  0  0  0  0  0  0
    0.2902   -0.8973    0.1127 C   0  0  0  0  0  0  0  0  0  0  0  0
   -0.7402   -0.1691   -0.3580 C   0  0  0  0  0  0  0  0  0  0  0  0
   -0.4871    1.3935   -1.0714 Cl  0  0  0  0  0  0  0  0  0  0  0  0
    1.6937   -0.4513    0.0657 C   0  0  0  0  0  0  0  0  0  0  0  0
    2.1845    0.4513    1.0174 C   0  0  0  0  0  0  0  0  0  0  0  0
    3.5121    0.8832    0.9613 C   0  0  0  0  0  0  0  0  0  0  0  0
    4.3650    0.4268   -0.0502 C   0  0  0  0  0  0  0  0  0  0  0  0
    5.8002    0.8616   -0.0871 C   0  0  0  0  0  0  0  0  0  0  0  0
    3.8780   -0.4893   -0.9896 C   0  0  0  0  0  0  0  0  0  0  0  0
    2.5505   -0.9221   -0.9360 C   0  0  0  0  0  0  0  0  0  0  0  0
   -3.5221   -2.2275    0.4433 O   0  0  0  0  0  0  0  0  0  0  0  0
   -4.6945    2.5086   -0.9883 H   0  0  0  0  0  0  0  0  0  0  0  0
   -5.3452    2.4934    0.6597 H   0  0  0  0  0  0  0  0  0  0  0  0
   -5.7793    1.2017   -0.4728 H   0  0  0  0  0  0  0  0  0  0  0  0
   -4.0663    0.4480    1.1914 H   0  0  0  0  0  0  0  0  0  0  0  0
   -2.9929    1.7429    0.6814 H   0  0  0  0  0  0  0  0  0  0  0  0
   -2.9706    0.7518   -1.6688 H   0  0  0  0  0  0  0  0  0  0  0  0
   -4.0101   -0.5204   -1.1347 H   0  0  0  0  0  0  0  0  0  0  0  0
    1.5418    0.8221    1.8126 H   0  0  0  0  0  0  0  0  0  0  0  0
    3.8773    1.5772    1.7151 H   0  0  0  0  0  0  0  0  0  0  0  0
    6.1784    0.8734   -1.1148 H   0  0  0  0  0  0  0  0  0  0  0  0
    5.9115    1.8756    0.3110 H   0  0  0  0  0  0  0  0  0  0  0  0
    6.4136    0.1782    0.5081 H   0  0  0  0  0  0  0  0  0  0  0  0
    4.5312   -0.8765   -1.7685 H   0  0  0  0  0  0  0  0  0  0  0  0
    2.1972   -1.6366   -1.6761 H   0  0  0  0  0  0  0  0  0  0  0  0
   -3.4964   -3.0882    0.8964 H   0  0  0  0  0  0  0  0  0  0  0  0
  1  2  1  0
  2  3  1  0
  3  4  1  0
  4  5  1  0
  5  6  2  0
  6  7  1  0
  7  8  2  0
  7  9  1  0
  9 10  2  0
 10 11  1  0
  9 12  1  0
 12 13  2  0
 13 14  1  0
 14 15  2  0
 15 16  1  0
 15 17  1  0
 17 18  2  0
  5 19  1  0
 10  4  1  0
 18 12  1  0
  1 20  1  0
  1 21  1  0
  1 22  1  0
  2 23  1  0
  2 24  1  0
  3 25  1  0
  3 26  1  0
 13 27  1  0
 14 28  1  0
 16 29  1  0
 16 30  1  0
 16 31  1  0
 17 32  1  0
 18 33  1  0
 19 34  1  0
M  END
>  <Unnamed: 0>  (88) 
477

>  <ID>  (88) 
TRAIN_0477

>  <Canonical_Smiles>  (88) 
CCCN1C(=NC(=O)C(=C1Cl)c2ccc(C)cc2)O

>  <Inhibition>  (88) 
0.0

>  <TDC_conf_true_inhibitor>  (88) 
0

>  <TDC_conf_non_inhibitor>  (88) 
1

>  <split>  (88) 
1

$$$$
88
     RDKit          3D

 48 50  0  0  0  0  0  0  0  0999 V2000
   -6.0312   -1.2226    0.2920 C   0  0  0  0  0  0  0  0  0  0  0  0
   -5.4134    0.1708    0.1306 C   0  0  0  0  0  0  0  0  0  0  0  0
   -5.3805    0.6170   -1.3354 C   0  0  0  0  0  0  0  0  0  0  0  0
   -6.2562    1.1762    0.9302 C   0  0  0  0  0  0  0  0  0  0  0  0
   -4.0944    0.2364    0.7314 O   0  0  0  0  0  0  0  0  0  0  0  0
   -3.0867   -0.5360    0.2677 C   0  0  0  0  0  0  0  0  0  0  0  0
   -3.1469   -1.3262   -0.6597 O   0  0  0  0  0  0  0  0  0  0  0  0
   -1.9677   -0.2758    1.0007 N   0  0  0  0  0  0  0  0  0  0  0  0
   -0.6621   -0.8115    0.6528 C   0  0  0  0  0  0  0  0  0  0  0  0
   -0.0306   -0.0172   -0.4970 C   0  0  0  0  0  0  0  0  0  0  0  0
    1.3728   -0.5348   -0.8055 C   0  0  0  0  0  0  0  0  0  0  0  0
    2.1855   -0.4728    0.4242 N   0  0  0  0  0  0  0  0  0  0  0  0
    1.6469   -1.3275    1.4966 C   0  0  0  0  0  0  0  0  0  0  0  0
    0.2576   -0.8202    1.8768 C   0  0  0  0  0  0  0  0  0  0  0  0
    3.5321   -0.8225    0.1112 C   0  0  0  0  0  0  0  0  0  0  0  0
    3.9288   -2.1139    0.2170 N   0  0  0  0  0  0  0  0  0  0  0  0
    5.1978   -2.4866   -0.1121 N   0  0  0  0  0  0  0  0  0  0  0  0
    6.0671   -1.5534   -0.5454 C   0  0  0  0  0  0  0  0  0  0  0  0
    7.6164   -2.2081   -0.9192 Cl  0  0  0  0  0  0  0  0  0  0  0  0
    5.7494   -0.1970   -0.6745 C   0  0  0  0  0  0  0  0  0  0  0  0
    6.6569    0.7983   -1.1207 C   0  0  0  0  0  0  0  0  0  0  0  0
    6.2796    2.1379   -1.2120 C   0  0  0  0  0  0  0  0  0  0  0  0
    4.9934    2.5155   -0.8564 C   0  0  0  0  0  0  0  0  0  0  0  0
    4.0853    1.5513   -0.4177 C   0  0  0  0  0  0  0  0  0  0  0  0
    4.4337    0.1811   -0.3269 C   0  0  0  0  0  0  0  0  0  0  0  0
   -5.9664   -1.5585    1.3330 H   0  0  0  0  0  0  0  0  0  0  0  0
   -5.5124   -1.9727   -0.3124 H   0  0  0  0  0  0  0  0  0  0  0  0
   -7.0838   -1.2293   -0.0113 H   0  0  0  0  0  0  0  0  0  0  0  0
   -4.8575    1.5745   -1.4386 H   0  0  0  0  0  0  0  0  0  0  0  0
   -6.3920    0.7270   -1.7412 H   0  0  0  0  0  0  0  0  0  0  0  0
   -4.8502   -0.0998   -1.9695 H   0  0  0  0  0  0  0  0  0  0  0  0
   -5.8242    2.1820    0.8695 H   0  0  0  0  0  0  0  0  0  0  0  0
   -6.2736    0.9113    1.9939 H   0  0  0  0  0  0  0  0  0  0  0  0
   -7.2888    1.2210    0.5681 H   0  0  0  0  0  0  0  0  0  0  0  0
   -2.0458    0.5116    1.6297 H   0  0  0  0  0  0  0  0  0  0  0  0
   -0.8120   -1.8463    0.3168 H   0  0  0  0  0  0  0  0  0  0  0  0
   -0.6527   -0.0843   -1.3972 H   0  0  0  0  0  0  0  0  0  0  0  0
    0.0198    1.0464   -0.2281 H   0  0  0  0  0  0  0  0  0  0  0  0
    1.3176   -1.5634   -1.1875 H   0  0  0  0  0  0  0  0  0  0  0  0
    1.8029    0.0897   -1.5980 H   0  0  0  0  0  0  0  0  0  0  0  0
    2.2922   -1.2771    2.3827 H   0  0  0  0  0  0  0  0  0  0  0  0
    1.5773   -2.3779    1.1831 H   0  0  0  0  0  0  0  0  0  0  0  0
   -0.1671   -1.4541    2.6643 H   0  0  0  0  0  0  0  0  0  0  0  0
    0.3351    0.1927    2.2937 H   0  0  0  0  0  0  0  0  0  0  0  0
    7.6763    0.5360   -1.3993 H   0  0  0  0  0  0  0  0  0  0  0  0
    6.9933    2.8834   -1.5541 H   0  0  0  0  0  0  0  0  0  0  0  0
    4.6929    3.5587   -0.9148 H   0  0  0  0  0  0  0  0  0  0  0  0
    3.0855    1.8752   -0.1312 H   0  0  0  0  0  0  0  0  0  0  0  0
  1  2  1  0
  2  3  1  0
  2  4  1  0
  2  5  1  0
  5  6  1  0
  6  7  2  0
  6  8  1  0
  8  9  1  0
  9 10  1  0
 10 11  1  0
 11 12  1  0
 12 13  1  0
 13 14  1  0
 12 15  1  0
 15 16  2  0
 16 17  1  0
 17 18  2  0
 18 19  1  0
 18 20  1  0
 20 21  2  0
 21 22  1  0
 22 23  2  0
 23 24  1  0
 24 25  2  0
 14  9  1  0
 25 15  1  0
 25 20  1  0
  1 26  1  0
  1 27  1  0
  1 28  1  0
  3 29  1  0
  3 30  1  0
  3 31  1  0
  4 32  1  0
  4 33  1  0
  4 34  1  0
  8 35  1  0
  9 36  1  0
 10 37  1  0
 10 38  1  0
 11 39  1  0
 11 40  1  0
 13 41  1  0
 13 42  1  0
 14 43  1  0
 14 44  1  0
 21 45  1  0
 22 46  1  0
 23 47  1  0
 24 48  1  0
M  END
>  <Unnamed: 0>  (89) 
485

>  <ID>  (89) 
TRAIN_0485

>  <Canonical_Smiles>  (89) 
CC(C)(C)OC(=O)NC1CCN(CC1)c2nnc(Cl)c3ccccc23

>  <Inhibition>  (89) 
18.6

>  <TDC_conf_true_inhibitor>  (89) 
0

>  <TDC_conf_non_inhibitor>  (89) 
1

>  <split>  (89) 
1

$$$$
89
     RDKit          3D

 45 48  0  0  0  0  0  0  0  0999 V2000
   -5.4681   -0.2001   -3.8266 F   0  0  0  0  0  0  0  0  0  0  0  0
   -5.0274    0.0762   -2.5918 C   0  0  0  0  0  0  0  0  0  0  0  0
   -4.0525   -0.7432   -2.0242 C   0  0  0  0  0  0  0  0  0  0  0  0
   -3.5846   -0.4664   -0.7337 C   0  0  0  0  0  0  0  0  0  0  0  0
   -4.0861    0.6438   -0.0382 C   0  0  0  0  0  0  0  0  0  0  0  0
   -5.0602    1.4471   -0.6259 C   0  0  0  0  0  0  0  0  0  0  0  0
   -5.5376    2.4987    0.0533 F   0  0  0  0  0  0  0  0  0  0  0  0
   -5.5355    1.1665   -1.8988 C   0  0  0  0  0  0  0  0  0  0  0  0
   -6.4737    1.9435   -2.4572 F   0  0  0  0  0  0  0  0  0  0  0  0
   -2.5307   -1.2947   -0.0837 C   0  0  0  0  0  0  0  0  0  0  0  0
   -1.6777   -0.7091    0.6977 N   0  0  0  0  0  0  0  0  0  0  0  0
   -0.6919   -1.4779    1.2784 N   0  0  0  0  0  0  0  0  0  0  0  0
    0.2284   -0.8087    2.1981 C   0  0  0  0  0  0  0  0  0  0  0  0
    0.4721    0.6882    1.9270 C   0  0  2  0  0  0  0  0  0  0  0  0
    1.2202    0.9393    0.5996 C   0  0  0  0  0  0  0  0  0  0  0  0
    2.6497    0.6068    0.7268 N   0  0  0  0  0  0  0  0  0  0  0  0
    3.3068    1.2356    1.8803 C   0  0  0  0  0  0  0  0  0  0  0  0
    2.5124    0.9435    3.1592 C   0  0  0  0  0  0  0  0  0  0  0  0
    1.1369    1.3328    3.0415 O   0  0  0  0  0  0  0  0  0  0  0  0
    3.3680    0.7205   -0.4643 C   0  0  0  0  0  0  0  0  0  0  0  0
    4.7014    0.8982   -0.4057 N   0  0  0  0  0  0  0  0  0  0  0  0
    5.3846    0.9683   -1.5694 C   0  0  0  0  0  0  0  0  0  0  0  0
    4.7921    0.8693   -2.8003 C   0  0  0  0  0  0  0  0  0  0  0  0
    5.7662    0.9705   -4.3994 Br  0  0  0  0  0  0  0  0  0  0  0  0
    3.4341    0.6908   -2.7755 C   0  0  0  0  0  0  0  0  0  0  0  0
    2.7126    0.6147   -1.6356 N   0  0  0  0  0  0  0  0  0  0  0  0
   -0.6226   -2.8611    1.1571 C   0  0  0  0  0  0  0  0  0  0  0  0
    0.1814   -3.5858    1.7371 O   0  0  0  0  0  0  0  0  0  0  0  0
   -1.6121   -3.4801    0.2526 C   0  0  0  0  0  0  0  0  0  0  0  0
   -2.5418   -2.7465   -0.3599 C   0  0  0  0  0  0  0  0  0  0  0  0
   -3.6621   -1.5642   -2.6171 H   0  0  0  0  0  0  0  0  0  0  0  0
   -3.7298    0.8904    0.9592 H   0  0  0  0  0  0  0  0  0  0  0  0
   -0.1864   -0.9334    3.2064 H   0  0  0  0  0  0  0  0  0  0  0  0
    1.1774   -1.3571    2.1987 H   0  0  0  0  0  0  0  0  0  0  0  0
   -0.5005    1.1894    1.8598 H   0  0  0  0  0  0  0  0  0  0  0  0
    1.1294    2.0054    0.3501 H   0  0  0  0  0  0  0  0  0  0  0  0
    0.7407    0.3649   -0.2011 H   0  0  0  0  0  0  0  0  0  0  0  0
    3.3556    2.3217    1.7276 H   0  0  0  0  0  0  0  0  0  0  0  0
    4.3250    0.8556    2.0262 H   0  0  0  0  0  0  0  0  0  0  0  0
    2.9413    1.5094    3.9927 H   0  0  0  0  0  0  0  0  0  0  0  0
    2.5713   -0.1164    3.4290 H   0  0  0  0  0  0  0  0  0  0  0  0
    6.4555    1.1092   -1.4603 H   0  0  0  0  0  0  0  0  0  0  0  0
    2.8538    0.5972   -3.6881 H   0  0  0  0  0  0  0  0  0  0  0  0
   -1.5463   -4.5540    0.1346 H   0  0  0  0  0  0  0  0  0  0  0  0
   -3.2892   -3.1989   -0.9956 H   0  0  0  0  0  0  0  0  0  0  0  0
  1  2  1  0
  2  3  2  0
  3  4  1  0
  4  5  2  0
  5  6  1  0
  6  7  1  0
  6  8  2  0
  8  9  1  0
  4 10  1  0
 10 11  2  0
 11 12  1  0
 12 13  1  0
 13 14  1  0
 14 15  1  0
 15 16  1  0
 16 17  1  0
 17 18  1  0
 18 19  1  0
 16 20  1  0
 20 21  2  0
 21 22  1  0
 22 23  2  0
 23 24  1  0
 23 25  1  0
 25 26  2  0
 12 27  1  0
 27 28  2  0
 27 29  1  0
 29 30  2  0
  8  2  1  0
 30 10  1  0
 19 14  1  0
 26 20  1  0
  3 31  1  0
  5 32  1  0
 13 33  1  0
 13 34  1  0
 14 35  1  6
 15 36  1  0
 15 37  1  0
 17 38  1  0
 17 39  1  0
 18 40  1  0
 18 41  1  0
 22 42  1  0
 25 43  1  0
 29 44  1  0
 30 45  1  0
M  END
>  <Unnamed: 0>  (90) 
495

>  <ID>  (90) 
TRAIN_0495

>  <Canonical_Smiles>  (90) 
Fc1cc(cc(F)c1F)C2=NN(C[C@@H]3CN(CCO3)c4ncc(Br)cn4)C(=O)C=C2

>  <Inhibition>  (90) 
36.7

>  <TDC_conf_true_inhibitor>  (90) 
0

>  <TDC_conf_non_inhibitor>  (90) 
1

>  <split>  (90) 
1

$$$$
90
     RDKit          3D

 49 52  0  0  0  0  0  0  0  0999 V2000
   -5.3585   -1.3385   -1.1592 C   0  0  0  0  0  0  0  0  0  0  0  0
   -4.2217   -1.6840   -0.1979 C   0  0  0  0  0  0  0  0  0  0  0  0
   -4.7636   -1.9867    1.2115 C   0  0  0  0  0  0  0  0  0  0  0  0
   -3.7522   -2.5817    2.0275 O   0  0  0  0  0  0  0  0  0  0  0  0
   -3.1949   -0.6431   -0.1761 N   0  0  0  0  0  0  0  0  0  0  0  0
   -1.7530   -0.9918   -0.2162 C   0  0  0  0  0  0  0  0  0  0  0  0
   -1.1598    0.3348    0.0257 C   0  0  0  0  0  0  0  0  0  0  0  0
    0.0871    0.9706    0.1264 C   0  0  0  0  0  0  0  0  0  0  0  0
    1.4133    0.4127   -0.0306 C   0  0  0  0  0  0  0  0  0  0  0  0
    2.3263    0.4334    1.0201 C   0  0  0  0  0  0  0  0  0  0  0  0
    3.6025   -0.1272    0.8607 C   0  0  0  0  0  0  0  0  0  0  0  0
    4.0134   -0.7368   -0.3390 C   0  0  0  0  0  0  0  0  0  0  0  0
    3.0715   -0.7273   -1.3840 C   0  0  0  0  0  0  0  0  0  0  0  0
    1.7907   -0.1732   -1.2359 C   0  0  0  0  0  0  0  0  0  0  0  0
    5.2962   -1.2773   -0.4926 N   0  0  0  0  0  0  0  0  0  0  0  0
    6.0515   -1.6370    0.7068 C   0  0  0  0  0  0  0  0  0  0  0  0
    5.6068   -2.0544   -1.6904 C   0  0  0  0  0  0  0  0  0  0  0  0
   -0.1896    2.3089    0.4117 C   0  0  0  0  0  0  0  0  0  0  0  0
    0.6065    3.4795    0.6127 C   0  0  0  0  0  0  0  0  0  0  0  0
    0.0113    4.6563    0.8886 C   0  0  0  0  0  0  0  0  0  0  0  0
   -1.4336    4.7806    0.9874 C   0  0  0  0  0  0  0  0  0  0  0  0
   -2.1946    3.6922    0.7883 C   0  0  0  0  0  0  0  0  0  0  0  0
   -1.5836    2.4750    0.5008 N   0  0  0  0  0  0  0  0  0  0  0  0
   -2.1366    1.2634    0.2542 C   0  0  0  0  0  0  0  0  0  0  0  0
   -3.4356    0.6942    0.1799 C   0  0  0  0  0  0  0  0  0  0  0  0
   -4.5083    1.2364    0.3833 O   0  0  0  0  0  0  0  0  0  0  0  0
   -6.0357   -2.1915   -1.2748 H   0  0  0  0  0  0  0  0  0  0  0  0
   -4.9660   -1.0829   -2.1494 H   0  0  0  0  0  0  0  0  0  0  0  0
   -5.9533   -0.4907   -0.8059 H   0  0  0  0  0  0  0  0  0  0  0  0
   -3.7283   -2.5856   -0.5833 H   0  0  0  0  0  0  0  0  0  0  0  0
   -5.1087   -1.0792    1.7163 H   0  0  0  0  0  0  0  0  0  0  0  0
   -5.6047   -2.6869    1.1659 H   0  0  0  0  0  0  0  0  0  0  0  0
   -3.5668   -3.4653    1.6682 H   0  0  0  0  0  0  0  0  0  0  0  0
   -1.5263   -1.7013    0.5836 H   0  0  0  0  0  0  0  0  0  0  0  0
   -1.5128   -1.4020   -1.1999 H   0  0  0  0  0  0  0  0  0  0  0  0
    2.0583    0.8819    1.9738 H   0  0  0  0  0  0  0  0  0  0  0  0
    4.2728   -0.0618    1.7121 H   0  0  0  0  0  0  0  0  0  0  0  0
    3.3078   -1.1533   -2.3542 H   0  0  0  0  0  0  0  0  0  0  0  0
    1.1049   -0.1905   -2.0793 H   0  0  0  0  0  0  0  0  0  0  0  0
    7.0089   -2.1042    0.4498 H   0  0  0  0  0  0  0  0  0  0  0  0
    6.2998   -0.7505    1.2997 H   0  0  0  0  0  0  0  0  0  0  0  0
    5.4940   -2.3496    1.3245 H   0  0  0  0  0  0  0  0  0  0  0  0
    6.6547   -2.3753   -1.6930 H   0  0  0  0  0  0  0  0  0  0  0  0
    5.4762   -1.4546   -2.5974 H   0  0  0  0  0  0  0  0  0  0  0  0
    4.9841   -2.9537   -1.7493 H   0  0  0  0  0  0  0  0  0  0  0  0
    1.6871    3.4116    0.5346 H   0  0  0  0  0  0  0  0  0  0  0  0
    0.6054    5.5523    1.0401 H   0  0  0  0  0  0  0  0  0  0  0  0
   -1.8665    5.7483    1.2142 H   0  0  0  0  0  0  0  0  0  0  0  0
   -3.2767    3.7059    0.8398 H   0  0  0  0  0  0  0  0  0  0  0  0
  1  2  1  0
  2  3  1  0
  3  4  1  0
  2  5  1  0
  5  6  1  0
  6  7  1  0
  7  8  1  0
  8  9  1  0
  9 10  2  0
 10 11  1  0
 11 12  2  0
 12 13  1  0
 13 14  2  0
 12 15  1  0
 15 16  1  0
 15 17  1  0
  8 18  2  0
 18 19  1  0
 19 20  2  0
 20 21  1  0
 21 22  2  0
 22 23  1  0
 23 24  1  0
 24 25  1  0
 25 26  2  0
 25  5  1  0
 24  7  2  0
 14  9  1  0
 23 18  1  0
  1 27  1  0
  1 28  1  0
  1 29  1  0
  2 30  1  0
  3 31  1  0
  3 32  1  0
  4 33  1  0
  6 34  1  0
  6 35  1  0
 10 36  1  0
 11 37  1  0
 13 38  1  0
 14 39  1  0
 16 40  1  0
 16 41  1  0
 16 42  1  0
 17 43  1  0
 17 44  1  0
 17 45  1  0
 19 46  1  0
 20 47  1  0
 21 48  1  0
 22 49  1  0
M  END
>  <Unnamed: 0>  (91) 
498

>  <ID>  (91) 
TRAIN_0498

>  <Canonical_Smiles>  (91) 
CC(CO)N1Cc2c(c3ccc(cc3)N(C)C)c4ccccn4c2C1=O

>  <Inhibition>  (91) 
59.6

>  <TDC_conf_true_inhibitor>  (91) 
1

>  <TDC_conf_non_inhibitor>  (91) 
0

>  <split>  (91) 
1

$$$$
91
     RDKit          3D

 48 51  0  0  0  0  0  0  0  0999 V2000
    6.5103   -0.2798    0.4432 C   0  0  0  0  0  0  0  0  0  0  0  0
    5.5665   -0.2237   -0.6273 O   0  0  0  0  0  0  0  0  0  0  0  0
    4.2662   -0.3326   -0.2303 C   0  0  0  0  0  0  0  0  0  0  0  0
    3.9155   -0.5401    0.9270 O   0  0  0  0  0  0  0  0  0  0  0  0
    3.3060   -0.2757   -1.4316 C   0  0  2  0  0  0  0  0  0  0  0  0
    3.8215    0.5752   -2.5910 C   0  0  0  0  0  0  0  0  0  0  0  0
    1.9761    0.1397   -0.9881 N   0  0  0  0  0  0  0  0  0  0  0  0
    0.9633   -0.8624   -0.5699 C   0  0  0  0  0  0  0  0  0  0  0  0
   -0.0654    0.0343   -0.0147 C   0  0  0  0  0  0  0  0  0  0  0  0
   -1.3471   -0.0000    0.5557 C   0  0  0  0  0  0  0  0  0  0  0  0
   -2.2096   -1.1420    0.8146 C   0  0  0  0  0  0  0  0  0  0  0  0
   -2.5709   -1.4263    2.1416 C   0  0  0  0  0  0  0  0  0  0  0  0
   -3.3880   -2.5164    2.4354 C   0  0  0  0  0  0  0  0  0  0  0  0
   -3.8440   -3.3348    1.4068 C   0  0  0  0  0  0  0  0  0  0  0  0
   -3.4844   -3.0679    0.0824 C   0  0  0  0  0  0  0  0  0  0  0  0
   -2.6685   -1.9727   -0.2281 C   0  0  0  0  0  0  0  0  0  0  0  0
   -2.2670   -1.6505   -1.5007 O   0  0  0  0  0  0  0  0  0  0  0  0
   -2.9091   -2.3188   -2.5783 C   0  0  0  0  0  0  0  0  0  0  0  0
   -1.6676    1.3281    0.8483 C   0  0  0  0  0  0  0  0  0  0  0  0
   -2.8100    1.9860    1.4072 C   0  0  0  0  0  0  0  0  0  0  0  0
   -2.8103    3.3272    1.5749 C   0  0  0  0  0  0  0  0  0  0  0  0
   -1.6518    4.1317    1.1883 C   0  0  0  0  0  0  0  0  0  0  0  0
   -0.5789    3.5272    0.6505 C   0  0  0  0  0  0  0  0  0  0  0  0
   -0.5864    2.1469    0.4780 N   0  0  0  0  0  0  0  0  0  0  0  0
    0.3591    1.3329   -0.0459 C   0  0  0  0  0  0  0  0  0  0  0  0
    1.6588    1.4501   -0.6051 C   0  0  0  0  0  0  0  0  0  0  0  0
    2.3444    2.4518   -0.7120 O   0  0  0  0  0  0  0  0  0  0  0  0
   -3.9487    3.9839    2.1308 C   0  0  0  0  0  0  0  0  0  0  0  0
   -4.8731    4.5194    2.5845 N   0  0  0  0  0  0  0  0  0  0  0  0
    6.3238    0.5226    1.1639 H   0  0  0  0  0  0  0  0  0  0  0  0
    6.4747   -1.2582    0.9323 H   0  0  0  0  0  0  0  0  0  0  0  0
    7.5093   -0.1398    0.0212 H   0  0  0  0  0  0  0  0  0  0  0  0
    3.2076   -1.3054   -1.7983 H   0  0  0  0  0  0  0  0  0  0  0  0
    4.6961    0.1068   -3.0558 H   0  0  0  0  0  0  0  0  0  0  0  0
    3.0548    0.6910   -3.3645 H   0  0  0  0  0  0  0  0  0  0  0  0
    4.1297    1.5730   -2.2631 H   0  0  0  0  0  0  0  0  0  0  0  0
    1.3926   -1.5233    0.1874 H   0  0  0  0  0  0  0  0  0  0  0  0
    0.6312   -1.4187   -1.4493 H   0  0  0  0  0  0  0  0  0  0  0  0
   -2.2074   -0.8015    2.9548 H   0  0  0  0  0  0  0  0  0  0  0  0
   -3.6624   -2.7288    3.4656 H   0  0  0  0  0  0  0  0  0  0  0  0
   -4.4781   -4.1885    1.6345 H   0  0  0  0  0  0  0  0  0  0  0  0
   -3.8541   -3.7407   -0.6844 H   0  0  0  0  0  0  0  0  0  0  0  0
   -2.6313   -3.3774   -2.6029 H   0  0  0  0  0  0  0  0  0  0  0  0
   -3.9962   -2.1943   -2.5351 H   0  0  0  0  0  0  0  0  0  0  0  0
   -2.5591   -1.8628   -3.5095 H   0  0  0  0  0  0  0  0  0  0  0  0
   -3.6730    1.3858    1.6844 H   0  0  0  0  0  0  0  0  0  0  0  0
   -1.6753    5.2072    1.3358 H   0  0  0  0  0  0  0  0  0  0  0  0
    0.3102    4.0624    0.3370 H   0  0  0  0  0  0  0  0  0  0  0  0
  1  2  1  0
  2  3  1  0
  3  4  2  0
  3  5  1  0
  5  6  1  0
  5  7  1  0
  7  8  1  0
  8  9  1  0
  9 10  1  0
 10 11  1  0
 11 12  2  0
 12 13  1  0
 13 14  2  0
 14 15  1  0
 15 16  2  0
 16 17  1  0
 17 18  1  0
 10 19  2  0
 19 20  1  0
 20 21  2  0
 21 22  1  0
 22 23  2  0
 23 24  1  0
 24 25  1  0
 25 26  1  0
 26 27  2  0
 21 28  1  0
 28 29  3  0
 26  7  1  0
 25  9  2  0
 16 11  1  0
 24 19  1  0
  1 30  1  0
  1 31  1  0
  1 32  1  0
  5 33  1  6
  6 34  1  0
  6 35  1  0
  6 36  1  0
  8 37  1  0
  8 38  1  0
 12 39  1  0
 13 40  1  0
 14 41  1  0
 15 42  1  0
 18 43  1  0
 18 44  1  0
 18 45  1  0
 20 46  1  0
 22 47  1  0
 23 48  1  0
M  END
>  <Unnamed: 0>  (92) 
611

>  <ID>  (92) 
TRAIN_0611

>  <Canonical_Smiles>  (92) 
COC(=O)[C@H](C)N1Cc2c(c3ccccc3OC)c4cc(ccn4c2C1=O)C#N

>  <Inhibition>  (92) 
30.4

>  <TDC_conf_true_inhibitor>  (92) 
1

>  <TDC_conf_non_inhibitor>  (92) 
0

>  <split>  (92) 
1

$$$$
92
     RDKit          3D

 36 39  0  0  0  0  0  0  0  0999 V2000
    0.5476    0.3702    1.4398 C   0  0  0  0  0  0  0  0  0  0  0  0
    0.8210    0.0778    0.0021 C   0  0  0  0  0  0  0  0  0  0  0  0
    2.1171   -0.0786   -0.5390 C   0  0  0  0  0  0  0  0  0  0  0  0
    3.4361   -0.1016    0.0768 C   0  0  0  0  0  0  0  0  0  0  0  0
    4.4175    0.8387   -0.2714 C   0  0  0  0  0  0  0  0  0  0  0  0
    5.6761    0.8116    0.3374 C   0  0  0  0  0  0  0  0  0  0  0  0
    5.9607   -0.1545    1.2990 C   0  0  0  0  0  0  0  0  0  0  0  0
    7.5071   -0.1856    2.0507 Cl  0  0  0  0  0  0  0  0  0  0  0  0
    4.9979   -1.0952    1.6568 C   0  0  0  0  0  0  0  0  0  0  0  0
    3.7394   -1.0684    1.0483 C   0  0  0  0  0  0  0  0  0  0  0  0
    1.8100   -0.2895   -2.1062 S   0  0  0  0  0  6  0  0  0  0  0  0
    2.5619   -1.5293   -2.7941 O   0  0  0  0  0  0  0  0  0  0  0  0
    2.3751    0.9663   -2.9506 O   0  0  0  0  0  0  0  0  0  0  0  0
    0.2685   -0.3347   -2.3149 N   0  0  0  0  0  0  0  0  0  0  0  0
   -0.2151   -0.0929   -1.0798 C   0  0  0  0  0  0  0  0  0  0  0  0
   -1.8024   -0.0302   -0.9046 C   0  0  0  0  0  0  0  0  0  0  0  0
   -2.5033    0.1722    0.2620 C   0  0  0  0  0  0  0  0  0  0  0  0
   -3.9304    0.1730    0.0753 C   0  0  0  0  0  0  0  0  0  0  0  0
   -4.9797    0.3473    1.0101 C   0  0  0  0  0  0  0  0  0  0  0  0
   -6.3134    0.3083    0.5920 C   0  0  0  0  0  0  0  0  0  0  0  0
   -6.6224    0.0977   -0.7445 C   0  0  0  0  0  0  0  0  0  0  0  0
   -5.6082   -0.0779   -1.6883 C   0  0  0  0  0  0  0  0  0  0  0  0
   -4.2667   -0.0376   -1.2619 C   0  0  0  0  0  0  0  0  0  0  0  0
   -2.8630   -0.2281   -2.2334 S   0  0  0  0  0  0  0  0  0  0  0  0
    0.0186   -0.4663    1.9060 H   0  0  0  0  0  0  0  0  0  0  0  0
    1.4671    0.5355    2.0092 H   0  0  0  0  0  0  0  0  0  0  0  0
   -0.0481    1.2828    1.5369 H   0  0  0  0  0  0  0  0  0  0  0  0
    4.2183    1.6047   -1.0204 H   0  0  0  0  0  0  0  0  0  0  0  0
    6.4271    1.5447    0.0534 H   0  0  0  0  0  0  0  0  0  0  0  0
    5.2214   -1.8536    2.4029 H   0  0  0  0  0  0  0  0  0  0  0  0
    3.0045   -1.8190    1.3333 H   0  0  0  0  0  0  0  0  0  0  0  0
   -2.0623    0.3160    1.2355 H   0  0  0  0  0  0  0  0  0  0  0  0
   -4.7526    0.5134    2.0602 H   0  0  0  0  0  0  0  0  0  0  0  0
   -7.1112    0.4439    1.3185 H   0  0  0  0  0  0  0  0  0  0  0  0
   -7.6621    0.0687   -1.0627 H   0  0  0  0  0  0  0  0  0  0  0  0
   -5.8521   -0.2429   -2.7342 H   0  0  0  0  0  0  0  0  0  0  0  0
  1  2  1  0
  2  3  2  0
  3  4  1  0
  4  5  2  0
  5  6  1  0
  6  7  2  0
  7  8  1  0
  7  9  1  0
  9 10  2  0
  3 11  1  0
 11 12  2  0
 11 13  2  0
 11 14  1  0
 14 15  2  0
 15 16  1  0
 16 17  2  0
 17 18  1  0
 18 19  2  0
 19 20  1  0
 20 21  2  0
 21 22  1  0
 22 23  2  0
 23 24  1  0
 15  2  1  0
 10  4  1  0
 24 16  1  0
 23 18  1  0
  1 25  1  0
  1 26  1  0
  1 27  1  0
  5 28  1  0
  6 29  1  0
  9 30  1  0
 10 31  1  0
 17 32  1  0
 19 33  1  0
 20 34  1  0
 21 35  1  0
 22 36  1  0
M  END
>  <Unnamed: 0>  (93) 
499

>  <ID>  (93) 
TRAIN_0499

>  <Canonical_Smiles>  (93) 
CC1=C(c2ccc(Cl)cc2)S(=O)(=O)N=C1c3cc4ccccc4s3

>  <Inhibition>  (93) 
0.0

>  <TDC_conf_true_inhibitor>  (93) 
0

>  <TDC_conf_non_inhibitor>  (93) 
1

>  <split>  (93) 
1

$$$$
93
     RDKit          3D

 44 48  0  0  0  0  0  0  0  0999 V2000
   -0.1716   -0.0738   -3.5005 C   0  0  0  0  0  0  0  0  0  0  0  0
    0.8671   -0.8119   -2.6540 C   0  0  1  0  0  0  0  0  0  0  0  0
    1.6611    0.0543   -1.6916 C   0  0  0  0  0  0  0  0  0  0  0  0
    1.1334    1.1936   -1.0781 C   0  0  0  0  0  0  0  0  0  0  0  0
    1.9036    1.9404   -0.1773 C   0  0  0  0  0  0  0  0  0  0  0  0
    3.2043    1.5861    0.1466 C   0  0  0  0  0  0  0  0  0  0  0  0
    3.9021    2.3388    1.0168 N   0  0  0  0  0  0  0  0  0  0  0  0
    5.1640    1.9580    1.3131 C   0  0  0  0  0  0  0  0  0  0  0  0
    5.7795    0.8434    0.7765 C   0  0  0  0  0  0  0  0  0  0  0  0
    5.0556    0.0697   -0.1222 C   0  0  0  0  0  0  0  0  0  0  0  0
    3.7438    0.4326   -0.4560 C   0  0  0  0  0  0  0  0  0  0  0  0
    2.9733   -0.3217   -1.3610 C   0  0  0  0  0  0  0  0  0  0  0  0
    0.2534   -1.9820   -1.9534 C   0  0  0  0  0  0  0  0  0  0  0  0
    0.5859   -3.2371   -2.0821 N   0  0  0  0  0  0  0  0  0  0  0  0
   -0.2501   -4.0478   -1.1922 N   0  0  0  0  0  0  0  0  0  0  0  0
   -1.0568   -3.2653   -0.5531 C   0  0  0  0  0  0  0  0  0  0  0  0
   -2.0925   -3.5288    0.4315 C   0  0  0  0  0  0  0  0  0  0  0  0
   -2.7197   -2.4175    0.8400 C   0  0  0  0  0  0  0  0  0  0  0  0
   -2.4506   -1.1162    0.4104 N   0  0  0  0  0  0  0  0  0  0  0  0
   -1.4814   -0.8461   -0.5498 N   0  0  0  0  0  0  0  0  0  0  0  0
   -0.8324   -1.8790   -0.9700 C   0  0  0  0  0  0  0  0  0  0  0  0
   -3.1161    0.0459    0.9274 C   0  0  0  0  0  0  0  0  0  0  0  0
   -3.7632    0.0550    2.1764 C   0  0  0  0  0  0  0  0  0  0  0  0
   -4.4049    1.2028    2.6585 C   0  0  0  0  0  0  0  0  0  0  0  0
   -4.4116    2.3712    1.9037 C   0  0  0  0  0  0  0  0  0  0  0  0
   -3.7722    2.3955    0.6695 C   0  0  0  0  0  0  0  0  0  0  0  0
   -3.1312    1.2479    0.1915 C   0  0  0  0  0  0  0  0  0  0  0  0
   -0.6362   -0.7594   -4.2184 H   0  0  0  0  0  0  0  0  0  0  0  0
   -0.9810    0.3562   -2.9031 H   0  0  0  0  0  0  0  0  0  0  0  0
    0.2945    0.7408   -4.0658 H   0  0  0  0  0  0  0  0  0  0  0  0
    1.5872   -1.2260   -3.3750 H   0  0  0  0  0  0  0  0  0  0  0  0
    0.1142    1.5206   -1.2694 H   0  0  0  0  0  0  0  0  0  0  0  0
    1.4705    2.8218    0.2904 H   0  0  0  0  0  0  0  0  0  0  0  0
    5.6837    2.5981    2.0204 H   0  0  0  0  0  0  0  0  0  0  0  0
    6.7953    0.5834    1.0506 H   0  0  0  0  0  0  0  0  0  0  0  0
    5.5157   -0.8131   -0.5585 H   0  0  0  0  0  0  0  0  0  0  0  0
    3.4044   -1.2161   -1.8106 H   0  0  0  0  0  0  0  0  0  0  0  0
   -2.3129   -4.5325    0.7569 H   0  0  0  0  0  0  0  0  0  0  0  0
   -3.5372   -2.5096    1.5463 H   0  0  0  0  0  0  0  0  0  0  0  0
   -3.7552   -0.8183    2.8207 H   0  0  0  0  0  0  0  0  0  0  0  0
   -4.8909    1.1830    3.6308 H   0  0  0  0  0  0  0  0  0  0  0  0
   -4.9075    3.2621    2.2794 H   0  0  0  0  0  0  0  0  0  0  0  0
   -3.7688    3.3048    0.0744 H   0  0  0  0  0  0  0  0  0  0  0  0
   -2.6483    1.2963   -0.7812 H   0  0  0  0  0  0  0  0  0  0  0  0
  1  2  1  0
  2  3  1  0
  3  4  2  0
  4  5  1  0
  5  6  2  0
  6  7  1  0
  7  8  2  0
  8  9  1  0
  9 10  2  0
 10 11  1  0
 11 12  2  0
  2 13  1  0
 13 14  2  0
 14 15  1  0
 15 16  2  0
 16 17  1  0
 17 18  2  0
 18 19  1  0
 19 20  1  0
 20 21  2  0
 19 22  1  0
 22 23  2  0
 23 24  1  0
 24 25  2  0
 25 26  1  0
 26 27  2  0
 12  3  1  0
 11  6  1  0
 21 13  1  0
 21 16  1  0
 27 22  1  0
  1 28  1  0
  1 29  1  0
  1 30  1  0
  2 31  1  6
  4 32  1  0
  5 33  1  0
  8 34  1  0
  9 35  1  0
 10 36  1  0
 12 37  1  0
 17 38  1  0
 18 39  1  0
 23 40  1  0
 24 41  1  0
 25 42  1  0
 26 43  1  0
 27 44  1  0
M  END
>  <Unnamed: 0>  (94) 
513

>  <ID>  (94) 
TRAIN_0513

>  <Canonical_Smiles>  (94) 
C[C@@H](c1ccc2ncccc2c1)c3nnc4ccn(nc34)c5ccccc5

>  <Inhibition>  (94) 
53.3

>  <TDC_conf_true_inhibitor>  (94) 
1

>  <TDC_conf_non_inhibitor>  (94) 
0

>  <split>  (94) 
1

$$$$
94
     RDKit          3D

 40 42  0  0  0  0  0  0  0  0999 V2000
    4.8802   -1.4004   -1.8795 C   0  0  0  0  0  0  0  0  0  0  0  0
    4.6191   -0.2033   -1.1606 O   0  0  0  0  0  0  0  0  0  0  0  0
    3.4965   -0.1662   -0.3732 C   0  0  0  0  0  0  0  0  0  0  0  0
    2.5677   -1.2064   -0.2705 C   0  0  0  0  0  0  0  0  0  0  0  0
    1.4437   -1.0718    0.5494 C   0  0  0  0  0  0  0  0  0  0  0  0
    1.2302    0.1062    1.2679 C   0  0  0  0  0  0  0  0  0  0  0  0
   -0.1982    0.3035    2.3189 S   0  0  0  0  0  0  0  0  0  0  0  0
   -1.5195   -0.0171    1.2183 C   0  0  0  0  0  0  0  0  0  0  0  0
   -2.3793   -1.0011    1.4826 N   0  0  0  0  0  0  0  0  0  0  0  0
   -3.2502   -0.9376    0.4412 N   0  0  0  0  0  0  0  0  0  0  0  0
   -2.9606    0.0496   -0.4779 C   0  0  0  0  0  0  0  0  0  0  0  0
   -3.5758    0.4515   -1.6752 C   0  0  0  0  0  0  0  0  0  0  0  0
   -3.0055    1.5202   -2.3721 C   0  0  0  0  0  0  0  0  0  0  0  0
   -1.8709    2.1678   -1.8912 C   0  0  0  0  0  0  0  0  0  0  0  0
   -1.2676    1.7602   -0.6964 C   0  0  0  0  0  0  0  0  0  0  0  0
   -1.8186    0.6793    0.0207 C   0  0  0  0  0  0  0  0  0  0  0  0
   -4.5784   -2.0142    0.2455 S   0  0  0  0  0  6  0  0  0  0  0  0
   -4.2376   -2.8170   -0.9160 O   0  0  0  0  0  0  0  0  0  0  0  0
   -5.7569   -1.1656    0.2635 O   0  0  0  0  0  0  0  0  0  0  0  0
   -4.6161   -3.0673    1.6704 C   0  0  0  0  0  0  0  0  0  0  0  0
    2.1647    1.1443    1.1805 C   0  0  0  0  0  0  0  0  0  0  0  0
    3.2957    1.0188    0.3636 C   0  0  0  0  0  0  0  0  0  0  0  0
    4.2548    1.9904    0.2144 O   0  0  0  0  0  0  0  0  0  0  0  0
    4.1069    3.1867    0.9613 C   0  0  0  0  0  0  0  0  0  0  0  0
    5.0171   -2.2472   -1.1998 H   0  0  0  0  0  0  0  0  0  0  0  0
    4.0903   -1.6020   -2.6103 H   0  0  0  0  0  0  0  0  0  0  0  0
    5.8162   -1.2637   -2.4302 H   0  0  0  0  0  0  0  0  0  0  0  0
    2.6865   -2.1354   -0.8178 H   0  0  0  0  0  0  0  0  0  0  0  0
    0.7393   -1.8982    0.6184 H   0  0  0  0  0  0  0  0  0  0  0  0
   -4.4656   -0.0423   -2.0586 H   0  0  0  0  0  0  0  0  0  0  0  0
   -3.4587    1.8521   -3.3045 H   0  0  0  0  0  0  0  0  0  0  0  0
   -1.4470    2.9993   -2.4513 H   0  0  0  0  0  0  0  0  0  0  0  0
   -0.3830    2.2774   -0.3355 H   0  0  0  0  0  0  0  0  0  0  0  0
   -4.7621   -2.4545    2.5618 H   0  0  0  0  0  0  0  0  0  0  0  0
   -5.4512   -3.7616    1.5561 H   0  0  0  0  0  0  0  0  0  0  0  0
   -3.6768   -3.6224    1.7268 H   0  0  0  0  0  0  0  0  0  0  0  0
    1.9897    2.0468    1.7562 H   0  0  0  0  0  0  0  0  0  0  0  0
    3.2092    3.7326    0.6542 H   0  0  0  0  0  0  0  0  0  0  0  0
    4.0995    2.9880    2.0374 H   0  0  0  0  0  0  0  0  0  0  0  0
    4.9722    3.8205    0.7483 H   0  0  0  0  0  0  0  0  0  0  0  0
  1  2  1  0
  2  3  1  0
  3  4  2  0
  4  5  1  0
  5  6  2  0
  6  7  1  0
  7  8  1  0
  8  9  2  0
  9 10  1  0
 10 11  1  0
 11 12  2  0
 12 13  1  0
 13 14  2  0
 14 15  1  0
 15 16  2  0
 10 17  1  0
 17 18  2  0
 17 19  2  0
 17 20  1  0
  6 21  1  0
 21 22  2  0
 22 23  1  0
 23 24  1  0
 22  3  1  0
 16  8  1  0
 16 11  1  0
  1 25  1  0
  1 26  1  0
  1 27  1  0
  4 28  1  0
  5 29  1  0
 12 30  1  0
 13 31  1  0
 14 32  1  0
 15 33  1  0
 20 34  1  0
 20 35  1  0
 20 36  1  0
 21 37  1  0
 24 38  1  0
 24 39  1  0
 24 40  1  0
M  END
>  <Unnamed: 0>  (95) 
517

>  <ID>  (95) 
TRAIN_0517

>  <Canonical_Smiles>  (95) 
COc1ccc(Sc2nn(c3ccccc23)S(=O)(=O)C)cc1OC

>  <Inhibition>  (95) 
86.9

>  <TDC_conf_true_inhibitor>  (95) 
1

>  <TDC_conf_non_inhibitor>  (95) 
0

>  <split>  (95) 
1

$$$$
95
     RDKit          3D

 39 43  0  0  0  0  0  0  0  0999 V2000
   -3.6641   -0.7534    3.6865 F   0  0  0  0  0  0  0  0  0  0  0  0
   -3.9831   -0.6210    2.3926 C   0  0  0  0  0  0  0  0  0  0  0  0
   -5.3177   -0.6997    2.0104 C   0  0  0  0  0  0  0  0  0  0  0  0
   -5.6586   -0.5566    0.6669 C   0  0  0  0  0  0  0  0  0  0  0  0
   -4.6588   -0.3456   -0.2878 C   0  0  0  0  0  0  0  0  0  0  0  0
   -3.3119   -0.2857    0.1014 C   0  0  0  0  0  0  0  0  0  0  0  0
   -2.9784   -0.4098    1.4558 C   0  0  0  0  0  0  0  0  0  0  0  0
   -2.2134   -0.0564   -0.8820 C   0  0  0  0  0  0  0  0  0  0  0  0
   -2.3968   -0.6274   -2.2555 C   0  0  0  0  0  0  0  0  0  0  0  0
   -1.4268   -0.4130   -3.1553 C   0  0  0  0  0  0  0  0  0  0  0  0
   -0.2833    0.3155   -2.7733 C   0  0  0  0  0  0  0  0  0  0  0  0
    0.8010    0.6818   -3.4210 N   0  0  0  0  0  0  0  0  0  0  0  0
    1.6080    1.3591   -2.5339 N   0  0  0  0  0  0  0  0  0  0  0  0
    0.9995    1.3803   -1.3607 C   0  0  0  0  0  0  0  0  0  0  0  0
    1.4984    1.9729   -0.0968 C   0  0  0  0  0  0  0  0  0  0  0  0
    2.1679    0.9796    0.7031 N   0  0  0  0  0  0  0  0  0  0  0  0
    1.6661    0.4184    1.8911 C   0  0  0  0  0  0  0  0  0  0  0  0
    0.6125    0.6713    2.4499 O   0  0  0  0  0  0  0  0  0  0  0  0
    2.6214   -0.5014    2.3352 N   0  0  0  0  0  0  0  0  0  0  0  0
    3.6881   -0.5156    1.4518 C   0  0  0  0  0  0  0  0  0  0  0  0
    4.7849   -1.2701    1.5516 N   0  0  0  0  0  0  0  0  0  0  0  0
    5.6674   -1.0822    0.5389 C   0  0  0  0  0  0  0  0  0  0  0  0
    5.4815   -0.1886   -0.5261 C   0  0  0  0  0  0  0  0  0  0  0  0
    4.3171    0.5810   -0.5820 C   0  0  0  0  0  0  0  0  0  0  0  0
    3.4144    0.3983    0.4381 C   0  0  0  0  0  0  0  0  0  0  0  0
   -0.2168    0.7538   -1.4685 N   0  0  0  0  0  0  0  0  0  0  0  0
   -1.1584    0.6005   -0.4967 N   0  0  0  0  0  0  0  0  0  0  0  0
   -6.0816   -0.8621    2.7647 H   0  0  0  0  0  0  0  0  0  0  0  0
   -6.7025   -0.5996    0.3648 H   0  0  0  0  0  0  0  0  0  0  0  0
   -4.9562   -0.2031   -1.3229 H   0  0  0  0  0  0  0  0  0  0  0  0
   -1.9468   -0.3441    1.7938 H   0  0  0  0  0  0  0  0  0  0  0  0
   -3.2705   -1.2168   -2.4990 H   0  0  0  0  0  0  0  0  0  0  0  0
   -1.4864   -0.8027   -4.1649 H   0  0  0  0  0  0  0  0  0  0  0  0
    2.2078    2.7805   -0.3104 H   0  0  0  0  0  0  0  0  0  0  0  0
    0.6763    2.4111    0.4798 H   0  0  0  0  0  0  0  0  0  0  0  0
    2.5541   -1.0649    3.1639 H   0  0  0  0  0  0  0  0  0  0  0  0
    6.5677   -1.6895    0.5964 H   0  0  0  0  0  0  0  0  0  0  0  0
    6.2363   -0.1023   -1.3018 H   0  0  0  0  0  0  0  0  0  0  0  0
    4.1415    1.2716   -1.3982 H   0  0  0  0  0  0  0  0  0  0  0  0
  1  2  1  0
  2  3  2  0
  3  4  1  0
  4  5  2  0
  5  6  1  0
  6  7  2  0
  6  8  1  0
  8  9  1  0
  9 10  2  0
 10 11  1  0
 11 12  2  0
 12 13  1  0
 13 14  2  0
 14 15  1  0
 15 16  1  0
 16 17  1  0
 17 18  2  0
 17 19  1  0
 19 20  1  0
 20 21  2  0
 21 22  1  0
 22 23  2  0
 23 24  1  0
 24 25  2  0
 14 26  1  0
 26 27  1  0
  7  2  1  0
 27  8  2  0
 26 11  1  0
 25 16  1  0
 25 20  1  0
  3 28  1  0
  4 29  1  0
  5 30  1  0
  7 31  1  0
  9 32  1  0
 10 33  1  0
 15 34  1  0
 15 35  1  0
 19 36  1  0
 22 37  1  0
 23 38  1  0
 24 39  1  0
M  END
>  <Unnamed: 0>  (96) 
522

>  <ID>  (96) 
TRAIN_0522

>  <Canonical_Smiles>  (96) 
Fc1cccc(c1)c2ccc3nnc(CN4C(=O)Nc5ncccc45)n3n2

>  <Inhibition>  (96) 
17.5

>  <TDC_conf_true_inhibitor>  (96) 
0

>  <TDC_conf_non_inhibitor>  (96) 
1

>  <split>  (96) 
1

$$$$
96
     RDKit          3D

 34 37  0  0  0  0  0  0  0  0999 V2000
    6.6979    0.2969   -0.0886 C   0  0  0  0  0  0  0  0  0  0  0  0
    5.8522   -0.8459   -0.0995 O   0  0  0  0  0  0  0  0  0  0  0  0
    4.5044   -0.6181   -0.0767 C   0  0  0  0  0  0  0  0  0  0  0  0
    3.8817    0.6285   -0.0447 C   0  0  0  0  0  0  0  0  0  0  0  0
    2.4818    0.7206   -0.0236 C   0  0  0  0  0  0  0  0  0  0  0  0
    1.6810   -0.4303   -0.0342 C   0  0  0  0  0  0  0  0  0  0  0  0
    2.3202   -1.6775   -0.0667 C   0  0  0  0  0  0  0  0  0  0  0  0
    3.7160   -1.7685   -0.0876 C   0  0  0  0  0  0  0  0  0  0  0  0
    0.2130   -0.3446   -0.0120 C   0  0  0  0  0  0  0  0  0  0  0  0
   -0.6046    0.8461    0.0336 C   0  0  0  0  0  0  0  0  0  0  0  0
   -1.8882    0.3858    0.0374 C   0  0  0  0  0  0  0  0  0  0  0  0
   -3.2731    0.7412    0.0666 C   0  0  0  0  0  0  0  0  0  0  0  0
   -3.8897    1.9719    0.1108 C   0  0  0  0  0  0  0  0  0  0  0  0
   -5.2873    1.9892    0.1303 C   0  0  0  0  0  0  0  0  0  0  0  0
   -6.0301    0.7915    0.1055 C   0  0  0  0  0  0  0  0  0  0  0  0
   -5.3944   -0.4536    0.0606 C   0  0  0  0  0  0  0  0  0  0  0  0
   -4.0118   -0.4691    0.0414 C   0  0  0  0  0  0  0  0  0  0  0  0
   -3.0710   -1.6637   -0.0061 C   0  0  0  0  0  0  0  0  0  0  0  0
   -1.7909   -0.9698   -0.0034 N   0  0  0  0  0  0  0  0  0  0  0  0
   -0.5571   -1.4602   -0.0339 N   0  0  0  0  0  0  0  0  0  0  0  0
    7.7342   -0.0540   -0.1090 H   0  0  0  0  0  0  0  0  0  0  0  0
    6.5381    0.9149   -0.9783 H   0  0  0  0  0  0  0  0  0  0  0  0
    6.5620    0.8800    0.8283 H   0  0  0  0  0  0  0  0  0  0  0  0
    4.4516    1.5514   -0.0354 H   0  0  0  0  0  0  0  0  0  0  0  0
    2.0367    1.7110    0.0006 H   0  0  0  0  0  0  0  0  0  0  0  0
    1.7338   -2.5944   -0.0760 H   0  0  0  0  0  0  0  0  0  0  0  0
    4.1881   -2.7475   -0.1127 H   0  0  0  0  0  0  0  0  0  0  0  0
   -0.2831    1.8759    0.0597 H   0  0  0  0  0  0  0  0  0  0  0  0
   -3.3183    2.8929    0.1299 H   0  0  0  0  0  0  0  0  0  0  0  0
   -5.8118    2.9418    0.1651 H   0  0  0  0  0  0  0  0  0  0  0  0
   -7.1173    0.8395    0.1216 H   0  0  0  0  0  0  0  0  0  0  0  0
   -5.9736   -1.3709    0.0417 H   0  0  0  0  0  0  0  0  0  0  0  0
   -3.1576   -2.2289   -0.9365 H   0  0  0  0  0  0  0  0  0  0  0  0
   -3.1328   -2.2821    0.8918 H   0  0  0  0  0  0  0  0  0  0  0  0
  1  2  1  0
  2  3  1  0
  3  4  2  0
  4  5  1  0
  5  6  2  0
  6  7  1  0
  7  8  2  0
  6  9  1  0
  9 10  1  0
 10 11  2  0
 11 12  1  0
 12 13  2  0
 13 14  1  0
 14 15  2  0
 15 16  1  0
 16 17  2  0
 17 18  1  0
 18 19  1  0
 19 20  1  0
  8  3  1  0
 20  9  2  0
 19 11  1  0
 17 12  1  0
  1 21  1  0
  1 22  1  0
  1 23  1  0
  4 24  1  0
  5 25  1  0
  7 26  1  0
  8 27  1  0
 10 28  1  0
 13 29  1  0
 14 30  1  0
 15 31  1  0
 16 32  1  0
 18 33  1  0
 18 34  1  0
M  END
>  <Unnamed: 0>  (97) 
524

>  <ID>  (97) 
TRAIN_0524

>  <Canonical_Smiles>  (97) 
COc1ccc(cc1)c2cc3c4ccccc4Cn3n2

>  <Inhibition>  (97) 
12.5

>  <TDC_conf_true_inhibitor>  (97) 
0

>  <TDC_conf_non_inhibitor>  (97) 
1

>  <split>  (97) 
1

$$$$
97
     RDKit          3D

 63 65  0  0  0  0  0  0  0  0999 V2000
    3.5191   -2.8398   -1.3937 N   0  0  0  0  0  0  0  0  0  0  0  0
    2.4546   -2.0469   -0.9476 C   0  0  0  0  0  0  0  0  0  0  0  0
    1.2352   -2.5929   -1.1285 N   0  0  0  0  0  0  0  0  0  0  0  0
    0.1488   -1.8976   -0.7148 C   0  0  0  0  0  0  0  0  0  0  0  0
    0.1975   -0.6485   -0.1139 C   0  0  0  0  0  0  0  0  0  0  0  0
    1.4701   -0.1019    0.0660 C   0  0  0  0  0  0  0  0  0  0  0  0
    2.6291   -0.7907   -0.3465 C   0  0  0  0  0  0  0  0  0  0  0  0
    3.9229   -0.1482   -0.1172 C   0  0  0  0  0  0  0  0  0  0  0  0
    5.0484   -0.7991   -0.5627 O   0  0  0  0  0  0  0  0  0  0  0  0
    6.0762    0.0249   -0.2125 C   0  0  0  0  0  0  0  0  0  0  0  0
    7.4303   -0.1773   -0.4365 C   0  0  0  0  0  0  0  0  0  0  0  0
    8.2657    0.8390    0.0319 C   0  0  0  0  0  0  0  0  0  0  0  0
    9.5872    0.7013   -0.1551 F   0  0  0  0  0  0  0  0  0  0  0  0
    7.7626    1.9752    0.6796 C   0  0  0  0  0  0  0  0  0  0  0  0
    8.8384    3.2008    1.2386 Cl  0  0  0  0  0  0  0  0  0  0  0  0
    6.3862    2.1406    0.8864 C   0  0  0  0  0  0  0  0  0  0  0  0
    5.5346    1.1303    0.4224 C   0  0  0  0  0  0  0  0  0  0  0  0
    4.1709    1.0086    0.4756 N   0  0  0  0  0  0  0  0  0  0  0  0
   -0.9952    0.0597    0.3183 C   0  0  0  0  0  0  0  0  0  0  0  0
   -1.1492    1.1742    1.1771 C   0  0  0  0  0  0  0  0  0  0  0  0
   -2.4228    1.5431    1.3291 N   0  0  0  0  0  0  0  0  0  0  0  0
   -3.1021    0.6673    0.5679 N   0  0  0  0  0  0  0  0  0  0  0  0
   -2.2893   -0.2378   -0.0602 C   0  0  0  0  0  0  0  0  0  0  0  0
   -4.5551    0.7596    0.4954 C   0  0  0  0  0  0  0  0  0  0  0  0
   -5.2354   -0.4842    1.0777 C   0  0  0  0  0  0  0  0  0  0  0  0
   -6.7512   -0.3653    0.9593 C   0  0  0  0  0  0  0  0  0  0  0  0
   -7.1703   -0.1294   -0.4223 N   0  0  0  0  0  0  0  0  0  0  0  0
   -6.5685    1.0873   -0.9681 C   0  0  0  0  0  0  0  0  0  0  0  0
   -5.0449    1.0293   -0.9317 C   0  0  0  0  0  0  0  0  0  0  0  0
    1.3904   -0.6527   -0.3946 O   0  0  0  0  0  0  0  0  0  0  0  0
    0.5472    0.3081    0.0651 C   0  0  0  0  0  0  0  0  0  0  0  0
    1.0155    1.3954    0.3807 O   0  0  0  0  0  0  0  0  0  0  0  0
   -0.9297   -0.1008    0.0778 C   0  0  0  0  0  0  0  0  0  0  0  0
   -1.6555    0.5818    1.0074 F   0  0  0  0  0  0  0  0  0  0  0  0
   -1.5337    0.1286   -1.1227 F   0  0  0  0  0  0  0  0  0  0  0  0
   -1.1126   -1.4241    0.3509 F   0  0  0  0  0  0  0  0  0  0  0  0
    1.3914   -0.6503   -0.3950 O   0  0  0  0  0  0  0  0  0  0  0  0
    0.5468    0.3090    0.0653 C   0  0  0  0  0  0  0  0  0  0  0  0
    1.0132    1.3970    0.3808 O   0  0  0  0  0  0  0  0  0  0  0  0
   -0.9295   -0.1025    0.0783 C   0  0  0  0  0  0  0  0  0  0  0  0
   -1.6562    0.5785    1.0082 F   0  0  0  0  0  0  0  0  0  0  0  0
   -1.5340    0.1261   -1.1219 F   0  0  0  0  0  0  0  0  0  0  0  0
   -1.1101   -1.4260    0.3510 F   0  0  0  0  0  0  0  0  0  0  0  0
    4.0719   -2.3160   -2.0671 H   0  0  0  0  0  0  0  0  0  0  0  0
    4.1342   -3.0505   -0.6124 H   0  0  0  0  0  0  0  0  0  0  0  0
   -0.7894   -2.4168   -0.8889 H   0  0  0  0  0  0  0  0  0  0  0  0
    1.5815    0.8785    0.5274 H   0  0  0  0  0  0  0  0  0  0  0  0
    7.8172   -1.0546   -0.9363 H   0  0  0  0  0  0  0  0  0  0  0  0
    5.9837    3.0147    1.3858 H   0  0  0  0  0  0  0  0  0  0  0  0
   -0.3868    1.7339    1.7035 H   0  0  0  0  0  0  0  0  0  0  0  0
   -2.7018   -0.9941   -0.7127 H   0  0  0  0  0  0  0  0  0  0  0  0
   -4.8358    1.6216    1.1175 H   0  0  0  0  0  0  0  0  0  0  0  0
   -4.8992   -1.3882    0.5537 H   0  0  0  0  0  0  0  0  0  0  0  0
   -4.9555   -0.6105    2.1305 H   0  0  0  0  0  0  0  0  0  0  0  0
   -7.1218    0.4423    1.6024 H   0  0  0  0  0  0  0  0  0  0  0  0
   -7.2191   -1.2886    1.3181 H   0  0  0  0  0  0  0  0  0  0  0  0
   -6.9136   -0.9298   -1.0010 H   0  0  0  0  0  0  0  0  0  0  0  0
   -6.9043    1.2144   -2.0033 H   0  0  0  0  0  0  0  0  0  0  0  0
   -6.9304    1.9614   -0.4135 H   0  0  0  0  0  0  0  0  0  0  0  0
   -4.6289    1.9742   -1.3033 H   0  0  0  0  0  0  0  0  0  0  0  0
   -4.6956    0.2436   -1.6143 H   0  0  0  0  0  0  0  0  0  0  0  0
    2.2783   -0.2364   -0.3646 H   0  0  0  0  0  0  0  0  0  0  0  0
    2.2783   -0.2318   -0.3668 H   0  0  0  0  0  0  0  0  0  0  0  0
  1  2  1  0
  2  3  2  0
  3  4  1  0
  4  5  2  0
  5  6  1  0
  6  7  2  0
  7  8  1  0
  8  9  1  0
  9 10  1  0
 10 11  2  0
 11 12  1  0
 12 13  1  0
 12 14  2  0
 14 15  1  0
 14 16  1  0
 16 17  2  0
 17 18  1  0
  5 19  1  0
 19 20  1  0
 20 21  2  0
 21 22  1  0
 22 23  1  0
 22 24  1  0
 24 25  1  0
 25 26  1  0
 26 27  1  0
 27 28  1  0
 28 29  1  0
 30 31  1  0
 31 32  2  0
 31 33  1  0
 33 34  1  0
 33 35  1  0
 33 36  1  0
 37 38  1  0
 38 39  2  0
 38 40  1  0
 40 41  1  0
 40 42  1  0
 40 43  1  0
  7  2  1  0
 18  8  2  0
 17 10  1  0
 23 19  2  0
 29 24  1  0
  1 44  1  0
  1 45  1  0
  4 46  1  0
  6 47  1  0
 11 48  1  0
 16 49  1  0
 20 50  1  0
 23 51  1  0
 24 52  1  0
 25 53  1  0
 25 54  1  0
 26 55  1  0
 26 56  1  0
 27 57  1  0
 28 58  1  0
 28 59  1  0
 29 60  1  0
 29 61  1  0
 30 62  1  0
 37 63  1  0
M  END
>  <Unnamed: 0>  (98) 
528

>  <ID>  (98) 
TRAIN_0528

>  <Canonical_Smiles>  (98) 
Nc1ncc(cc1c2oc3cc(F)c(Cl)cc3n2)c4cnn(c4)C5CCNCC5.OC(=O)C(F)(F)F.OC(=O)C(F)(F)F

>  <Inhibition>  (98) 
40.6

>  <TDC_conf_true_inhibitor>  (98) 
0

>  <TDC_conf_non_inhibitor>  (98) 
1

>  <split>  (98) 
1

$$$$
98
     RDKit          3D

 46 48  0  0  0  0  0  0  0  0999 V2000
    5.7936    1.4176    1.3118 C   0  0  0  0  0  0  0  0  0  0  0  0
    4.5565    1.2003    0.6019 N   0  0  0  0  0  0  0  0  0  0  0  0
    3.8656    0.0270    0.4903 C   0  0  0  0  0  0  0  0  0  0  0  0
    2.7483    0.3037   -0.2717 C   0  0  0  0  0  0  0  0  0  0  0  0
    2.8698    1.6836   -0.5608 C   0  0  0  0  0  0  0  0  0  0  0  0
    3.9689    2.2283   -0.0339 N   0  0  0  0  0  0  0  0  0  0  0  0
    1.7161   -0.6520   -0.6303 C   0  0  0  0  0  0  0  0  0  0  0  0
    1.9945   -2.0308   -0.7468 C   0  0  0  0  0  0  0  0  0  0  0  0
    1.0906   -2.9939   -1.0775 N   0  0  0  0  0  0  0  0  0  0  0  0
   -0.1361   -2.5199   -1.2958 C   0  0  0  0  0  0  0  0  0  0  0  0
   -1.2533   -3.2634   -1.6356 N   0  0  0  0  0  0  0  0  0  0  0  0
   -2.3537   -2.4099   -1.7617 C   0  0  0  0  0  0  0  0  0  0  0  0
   -3.4926   -2.7515   -2.0320 O   0  0  0  0  0  0  0  0  0  0  0  0
   -1.8847   -1.1071   -1.5118 N   0  0  0  0  0  0  0  0  0  0  0  0
   -2.7001    0.0793   -1.4921 C   0  0  0  0  0  0  0  0  0  0  0  0
   -3.0329    0.5416   -0.0930 C   0  0  0  0  0  0  0  0  0  0  0  0
   -3.7993   -0.2677    0.7596 C   0  0  0  0  0  0  0  0  0  0  0  0
   -4.1071    0.1558    2.0532 C   0  0  0  0  0  0  0  0  0  0  0  0
   -3.6567    1.3933    2.5077 C   0  0  0  0  0  0  0  0  0  0  0  0
   -2.9015    2.2101    1.6685 C   0  0  0  0  0  0  0  0  0  0  0  0
   -2.5929    1.7888    0.3737 C   0  0  0  0  0  0  0  0  0  0  0  0
   -0.5185   -1.1847   -1.2145 C   0  0  0  0  0  0  0  0  0  0  0  0
    0.4048   -0.2199   -0.8800 C   0  0  0  0  0  0  0  0  0  0  0  0
    1.3681   -0.6533   -0.4588 O   0  0  0  0  0  0  0  0  0  0  0  0
    0.5529    0.2992    0.0651 C   0  0  0  0  0  0  0  0  0  0  0  0
    1.0474    1.3615    0.4227 O   0  0  0  0  0  0  0  0  0  0  0  0
   -0.9291   -0.0892    0.0952 C   0  0  0  0  0  0  0  0  0  0  0  0
   -1.6574    0.6742    0.9575 F   0  0  0  0  0  0  0  0  0  0  0  0
   -1.5187    0.0458   -1.1266 F   0  0  0  0  0  0  0  0  0  0  0  0
   -1.1270   -1.3839    0.4743 F   0  0  0  0  0  0  0  0  0  0  0  0
    6.5417    1.7737    0.5992 H   0  0  0  0  0  0  0  0  0  0  0  0
    6.1244    0.4786    1.7622 H   0  0  0  0  0  0  0  0  0  0  0  0
    5.6173    2.1637    2.0907 H   0  0  0  0  0  0  0  0  0  0  0  0
    4.2189   -0.8770    0.9667 H   0  0  0  0  0  0  0  0  0  0  0  0
    2.2066    2.3150   -1.1378 H   0  0  0  0  0  0  0  0  0  0  0  0
    2.9985   -2.4149   -0.5802 H   0  0  0  0  0  0  0  0  0  0  0  0
   -1.2694   -4.2615   -1.7475 H   0  0  0  0  0  0  0  0  0  0  0  0
   -2.1790    0.8639   -2.0537 H   0  0  0  0  0  0  0  0  0  0  0  0
   -3.6380   -0.1188   -2.0250 H   0  0  0  0  0  0  0  0  0  0  0  0
   -4.1628   -1.2355    0.4171 H   0  0  0  0  0  0  0  0  0  0  0  0
   -4.6998   -0.4810    2.7048 H   0  0  0  0  0  0  0  0  0  0  0  0
   -3.8973    1.7222    3.5152 H   0  0  0  0  0  0  0  0  0  0  0  0
   -2.5545    3.1774    2.0229 H   0  0  0  0  0  0  0  0  0  0  0  0
   -2.0073    2.4443   -0.2665 H   0  0  0  0  0  0  0  0  0  0  0  0
    0.1214    0.8213   -0.7975 H   0  0  0  0  0  0  0  0  0  0  0  0
    2.2638   -0.2543   -0.4294 H   0  0  0  0  0  0  0  0  0  0  0  0
  1  2  1  0
  2  3  1  0
  3  4  2  0
  4  5  1  0
  5  6  2  0
  4  7  1  0
  7  8  2  0
  8  9  1  0
  9 10  2  0
 10 11  1  0
 11 12  1  0
 12 13  2  0
 12 14  1  0
 14 15  1  0
 15 16  1  0
 16 17  2  0
 17 18  1  0
 18 19  2  0
 19 20  1  0
 20 21  2  0
 14 22  1  0
 22 23  2  0
 24 25  1  0
 25 26  2  0
 25 27  1  0
 27 28  1  0
 27 29  1  0
 27 30  1  0
  6  2  1  0
 23  7  1  0
 22 10  1  0
 21 16  1  0
  1 31  1  0
  1 32  1  0
  1 33  1  0
  3 34  1  0
  5 35  1  0
  8 36  1  0
 11 37  1  0
 15 38  1  0
 15 39  1  0
 17 40  1  0
 18 41  1  0
 19 42  1  0
 20 43  1  0
 21 44  1  0
 23 45  1  0
 24 46  1  0
M  END
>  <Unnamed: 0>  (99) 
535

>  <ID>  (99) 
TRAIN_0535

>  <Canonical_Smiles>  (99) 
Cn1cc(cn1)c2cnc3NC(=O)N(Cc4ccccc4)c3c2.OC(=O)C(F)(F)F

>  <Inhibition>  (99) 
26.1

>  <TDC_conf_true_inhibitor>  (99) 
0

>  <TDC_conf_non_inhibitor>  (99) 
1

>  <split>  (99) 
1

$$$$
99
     RDKit          3D

 43 46  0  0  0  0  0  0  0  0999 V2000
    7.5568    0.1725    0.7163 C   0  0  0  0  0  0  0  0  0  0  0  0
    6.5315   -0.8131    0.7370 O   0  0  0  0  0  0  0  0  0  0  0  0
    5.2414   -0.3628    0.7059 C   0  0  0  0  0  0  0  0  0  0  0  0
    4.2717   -1.3627    0.7901 C   0  0  0  0  0  0  0  0  0  0  0  0
    2.9109   -1.0422    0.7696 C   0  0  0  0  0  0  0  0  0  0  0  0
    2.4939    0.2912    0.6622 C   0  0  0  0  0  0  0  0  0  0  0  0
    3.4738    1.2901    0.5751 C   0  0  0  0  0  0  0  0  0  0  0  0
    4.8371    0.9662    0.5976 C   0  0  0  0  0  0  0  0  0  0  0  0
    1.0715    0.6081    0.6299 C   0  0  0  0  0  0  0  0  0  0  0  0
    0.0069    0.1069   -0.1555 C   0  0  0  0  0  0  0  0  0  0  0  0
    0.2152   -0.8063   -1.3217 C   0  0  0  0  0  0  0  0  0  0  0  0
   -1.3214    0.6574    0.3325 C   0  0  0  0  0  0  0  0  0  0  0  0
   -1.2197    1.5610    1.3261 N   0  0  0  0  0  0  0  0  0  0  0  0
    0.3111    1.6670    1.5705 S   0  0  0  0  0  6  0  0  0  0  0  0
    0.7205    3.1619    1.0969 O   0  0  0  0  0  0  0  0  0  0  0  0
    0.7164    1.7003    3.1217 O   0  0  0  0  0  0  0  0  0  0  0  0
   -2.5470    0.3077   -0.1724 N   0  0  0  0  0  0  0  0  0  0  0  0
   -2.8309   -0.9869   -0.8328 C   0  0  0  0  0  0  0  0  0  0  0  0
   -4.2488   -1.5361   -0.5446 C   0  0  0  0  0  0  0  0  0  0  0  0
   -5.2381   -0.4638   -0.7596 C   0  0  0  0  0  0  0  0  0  0  0  0
   -6.5504   -0.6187   -1.0970 N   0  0  0  0  0  0  0  0  0  0  0  0
   -7.0228    0.6098   -1.1594 C   0  0  0  0  0  0  0  0  0  0  0  0
   -6.0590    1.5469   -0.8814 N   0  0  0  0  0  0  0  0  0  0  0  0
   -4.9086    0.8592   -0.6323 C   0  0  0  0  0  0  0  0  0  0  0  0
   -3.5681    1.3815   -0.2882 C   0  0  0  0  0  0  0  0  0  0  0  0
    7.4837    0.8380    1.5829 H   0  0  0  0  0  0  0  0  0  0  0  0
    8.5192   -0.3451    0.7743 H   0  0  0  0  0  0  0  0  0  0  0  0
    7.5394    0.7390   -0.2207 H   0  0  0  0  0  0  0  0  0  0  0  0
    4.5793   -2.4022    0.8795 H   0  0  0  0  0  0  0  0  0  0  0  0
    2.1858   -1.8489    0.8521 H   0  0  0  0  0  0  0  0  0  0  0  0
    3.1964    2.3396    0.4836 H   0  0  0  0  0  0  0  0  0  0  0  0
    5.5528    1.7790    0.5282 H   0  0  0  0  0  0  0  0  0  0  0  0
    1.2302   -0.7151   -1.7227 H   0  0  0  0  0  0  0  0  0  0  0  0
    0.0645   -1.8490   -1.0284 H   0  0  0  0  0  0  0  0  0  0  0  0
   -0.4599   -0.5554   -2.1438 H   0  0  0  0  0  0  0  0  0  0  0  0
   -2.7083   -0.8617   -1.9158 H   0  0  0  0  0  0  0  0  0  0  0  0
   -2.1286   -1.7562   -0.4961 H   0  0  0  0  0  0  0  0  0  0  0  0
   -4.3080   -1.8738    0.4967 H   0  0  0  0  0  0  0  0  0  0  0  0
   -4.4545   -2.3959   -1.1905 H   0  0  0  0  0  0  0  0  0  0  0  0
   -8.0423    0.8839   -1.3966 H   0  0  0  0  0  0  0  0  0  0  0  0
   -6.1924    2.5491   -0.8645 H   0  0  0  0  0  0  0  0  0  0  0  0
   -3.2473    2.0903   -1.0617 H   0  0  0  0  0  0  0  0  0  0  0  0
   -3.6540    1.9311    0.6573 H   0  0  0  0  0  0  0  0  0  0  0  0
  1  2  1  0
  2  3  1  0
  3  4  2  0
  4  5  1  0
  5  6  2  0
  6  7  1  0
  7  8  2  0
  6  9  1  0
  9 10  2  0
 10 11  1  0
 10 12  1  0
 12 13  2  0
 13 14  1  0
 14 15  2  0
 14 16  2  0
 12 17  1  0
 17 18  1  0
 18 19  1  0
 19 20  1  0
 20 21  1  0
 21 22  2  0
 22 23  1  0
 23 24  1  0
 24 25  1  0
  8  3  1  0
 14  9  1  0
 25 17  1  0
 24 20  2  0
  1 26  1  0
  1 27  1  0
  1 28  1  0
  4 29  1  0
  5 30  1  0
  7 31  1  0
  8 32  1  0
 11 33  1  0
 11 34  1  0
 11 35  1  0
 18 36  1  0
 18 37  1  0
 19 38  1  0
 19 39  1  0
 22 40  1  0
 23 41  1  0
 25 42  1  0
 25 43  1  0
M  END
>  <Unnamed: 0>  (100) 
538

>  <ID>  (100) 
TRAIN_0538

>  <Canonical_Smiles>  (100) 
COc1ccc(cc1)C2=C(C)C(=NS2(=O)=O)N3CCc4nc[nH]c4C3

>  <Inhibition>  (100) 
40.0

>  <TDC_conf_true_inhibitor>  (100) 
1

>  <TDC_conf_non_inhibitor>  (100) 
0

>  <split>  (100) 
1

$$$$
100
     RDKit          3D

 39 41  0  0  0  0  0  0  0  0999 V2000
   -5.2865    1.0813    1.4024 C   0  0  0  0  0  0  0  0  0  0  0  0
   -4.0787    0.6782    0.6016 C   0  0  0  0  0  0  0  0  0  0  0  0
   -2.9118    1.4527    0.6830 C   0  0  0  0  0  0  0  0  0  0  0  0
   -1.7731    1.1107   -0.0485 C   0  0  0  0  0  0  0  0  0  0  0  0
   -1.7783   -0.0169   -0.8663 C   0  0  0  0  0  0  0  0  0  0  0  0
   -0.3192   -0.4512   -1.7933 S   0  0  0  0  0  0  0  0  0  0  0  0
    0.2399   -1.8969   -0.8188 C   0  0  0  0  0  0  0  0  0  0  0  0
    0.9131   -1.5185    0.5058 C   0  0  0  0  0  0  0  0  0  0  0  0
    2.1417   -0.7627    0.3321 N   0  0  0  0  0  0  0  0  0  0  0  0
    3.2948   -1.2966   -0.1760 C   0  0  0  0  0  0  0  0  0  0  0  0
    3.5141   -2.4356   -0.5418 O   0  0  0  0  0  0  0  0  0  0  0  0
    4.2777   -0.2160   -0.2021 C   0  0  0  0  0  0  0  0  0  0  0  0
    5.5913   -0.2095   -0.6286 C   0  0  0  0  0  0  0  0  0  0  0  0
    6.2897    0.9978   -0.5252 C   0  0  0  0  0  0  0  0  0  0  0  0
    5.6672    2.1518   -0.0046 C   0  0  0  0  0  0  0  0  0  0  0  0
    4.3354    2.1184    0.4216 C   0  0  0  0  0  0  0  0  0  0  0  0
    3.6670    0.9152    0.3080 C   0  0  0  0  0  0  0  0  0  0  0  0
    2.2947    0.5563    0.6620 C   0  0  0  0  0  0  0  0  0  0  0  0
    1.5008    1.3267    1.1671 O   0  0  0  0  0  0  0  0  0  0  0  0
   -2.9403   -0.7883   -0.9643 C   0  0  0  0  0  0  0  0  0  0  0  0
   -4.0952   -0.4549   -0.2356 C   0  0  0  0  0  0  0  0  0  0  0  0
   -5.3238   -1.3121   -0.3709 C   0  0  0  0  0  0  0  0  0  0  0  0
   -5.5744    0.2778    2.0877 H   0  0  0  0  0  0  0  0  0  0  0  0
   -6.1240    1.3121    0.7365 H   0  0  0  0  0  0  0  0  0  0  0  0
   -5.0892    1.9732    2.0065 H   0  0  0  0  0  0  0  0  0  0  0  0
   -2.8773    2.3345    1.3196 H   0  0  0  0  0  0  0  0  0  0  0  0
   -0.8828    1.7302    0.0364 H   0  0  0  0  0  0  0  0  0  0  0  0
    0.9396   -2.4534   -1.4509 H   0  0  0  0  0  0  0  0  0  0  0  0
   -0.6102   -2.5603   -0.6282 H   0  0  0  0  0  0  0  0  0  0  0  0
    1.1786   -2.4443    1.0302 H   0  0  0  0  0  0  0  0  0  0  0  0
    0.2270   -0.9612    1.1525 H   0  0  0  0  0  0  0  0  0  0  0  0
    6.0571   -1.1048   -1.0272 H   0  0  0  0  0  0  0  0  0  0  0  0
    7.3274    1.0499   -0.8507 H   0  0  0  0  0  0  0  0  0  0  0  0
    6.2322    3.0799    0.0651 H   0  0  0  0  0  0  0  0  0  0  0  0
    3.8437    2.9981    0.8240 H   0  0  0  0  0  0  0  0  0  0  0  0
   -2.9518   -1.6558   -1.6210 H   0  0  0  0  0  0  0  0  0  0  0  0
   -5.5993   -1.7377    0.5992 H   0  0  0  0  0  0  0  0  0  0  0  0
   -5.1588   -2.1463   -1.0611 H   0  0  0  0  0  0  0  0  0  0  0  0
   -6.1583   -0.7215   -0.7619 H   0  0  0  0  0  0  0  0  0  0  0  0
  1  2  1  0
  2  3  2  0
  3  4  1  0
  4  5  2  0
  5  6  1  0
  6  7  1  0
  7  8  1  0
  8  9  1  0
  9 10  1  0
 10 11  2  0
 10 12  1  0
 12 13  2  0
 13 14  1  0
 14 15  2  0
 15 16  1  0
 16 17  2  0
 17 18  1  0
 18 19  2  0
  5 20  1  0
 20 21  2  0
 21 22  1  0
 21  2  1  0
 18  9  1  0
 17 12  1  0
  1 23  1  0
  1 24  1  0
  1 25  1  0
  3 26  1  0
  4 27  1  0
  7 28  1  0
  7 29  1  0
  8 30  1  0
  8 31  1  0
 13 32  1  0
 14 33  1  0
 15 34  1  0
 16 35  1  0
 20 36  1  0
 22 37  1  0
 22 38  1  0
 22 39  1  0
M  END
>  <Unnamed: 0>  (101) 
540

>  <ID>  (101) 
TRAIN_0540

>  <Canonical_Smiles>  (101) 
Cc1ccc(SCCN2C(=O)c3ccccc3C2=O)cc1C

>  <Inhibition>  (101) 
54.5

>  <TDC_conf_true_inhibitor>  (101) 
1

>  <TDC_conf_non_inhibitor>  (101) 
0

>  <split>  (101) 
1

$$$$
101
     RDKit          3D

 27 29  0  0  0  0  0  0  0  0999 V2000
    5.6242   -0.6379    0.6575 Cl  0  0  0  0  0  0  0  0  0  0  0  0
    3.9241   -0.4984    0.4447 C   0  0  0  0  0  0  0  0  0  0  0  0
    3.1064   -1.6001    0.6462 C   0  0  0  0  0  0  0  0  0  0  0  0
    1.7191   -1.4868    0.4733 C   0  0  0  0  0  0  0  0  0  0  0  0
    0.8285   -2.9448    0.7648 Cl  0  0  0  0  0  0  0  0  0  0  0  0
    1.1251   -0.2603    0.0917 C   0  0  0  0  0  0  0  0  0  0  0  0
    1.9862    0.8226   -0.0989 C   0  0  0  0  0  0  0  0  0  0  0  0
    1.4701    2.0528   -0.4685 N   0  0  0  0  0  0  0  0  0  0  0  0
    0.1577    2.3218   -0.6810 C   0  0  0  0  0  0  0  0  0  0  0  0
   -0.2052    3.4473   -1.0043 O   0  0  0  0  0  0  0  0  0  0  0  0
   -0.7179    1.3179   -0.5247 O   0  0  0  0  0  0  0  0  0  0  0  0
   -0.3670   -0.0209   -0.1235 C   0  0  0  0  0  0  0  0  0  0  0  0
   -0.9691   -1.1376   -1.4927 S   0  0  0  0  0  0  0  0  0  0  0  0
   -2.7241   -1.3494   -1.0612 C   0  0  0  0  0  0  0  0  0  0  0  0
   -3.3668   -0.1119   -0.4605 C   0  0  0  0  0  0  0  0  0  0  0  0
   -2.9431    0.1910    0.9735 C   0  0  0  0  0  0  0  0  0  0  0  0
   -1.2783   -0.3523    1.4552 S   0  0  0  0  0  0  0  0  0  0  0  0
    3.3706    0.7176    0.0723 C   0  0  0  0  0  0  0  0  0  0  0  0
    3.5451   -2.5516    0.9394 H   0  0  0  0  0  0  0  0  0  0  0  0
    2.0808    2.8487   -0.6076 H   0  0  0  0  0  0  0  0  0  0  0  0
   -3.2440   -1.6083   -1.9898 H   0  0  0  0  0  0  0  0  0  0  0  0
   -2.8296   -2.2127   -0.3950 H   0  0  0  0  0  0  0  0  0  0  0  0
   -4.4572   -0.2392   -0.4683 H   0  0  0  0  0  0  0  0  0  0  0  0
   -3.1800    0.7593   -1.1011 H   0  0  0  0  0  0  0  0  0  0  0  0
   -3.0378    1.2644    1.1704 H   0  0  0  0  0  0  0  0  0  0  0  0
   -3.6357   -0.3082    1.6606 H   0  0  0  0  0  0  0  0  0  0  0  0
    4.0177    1.5773   -0.0832 H   0  0  0  0  0  0  0  0  0  0  0  0
  1  2  1  0
  2  3  2  0
  3  4  1  0
  4  5  1  0
  4  6  2  0
  6  7  1  0
  7  8  1  0
  8  9  1  0
  9 10  2  0
  9 11  1  0
 11 12  1  0
 12 13  1  0
 13 14  1  0
 14 15  1  0
 15 16  1  0
 16 17  1  0
  7 18  2  0
 18  2  1  0
 12  6  1  0
 17 12  1  0
  3 19  1  0
  8 20  1  0
 14 21  1  0
 14 22  1  0
 15 23  1  0
 15 24  1  0
 16 25  1  0
 16 26  1  0
 18 27  1  0
M  END
>  <Unnamed: 0>  (102) 
547

>  <ID>  (102) 
TRAIN_0547

>  <Canonical_Smiles>  (102) 
Clc1cc(Cl)c2c(NC(=O)OC23SCCCS3)c1

>  <Inhibition>  (102) 
39.4

>  <TDC_conf_true_inhibitor>  (102) 
1

>  <TDC_conf_non_inhibitor>  (102) 
0

>  <split>  (102) 
1

$$$$
102
     RDKit          3D

 43 45  0  0  0  0  0  0  0  0999 V2000
    6.7824    3.2444    2.2407 Br  0  0  0  0  0  0  0  0  0  0  0  0
    5.9607    1.6594    1.6163 C   0  0  0  0  0  0  0  0  0  0  0  0
    6.4650    0.4261    2.0026 C   0  0  0  0  0  0  0  0  0  0  0  0
    5.8666   -0.7515    1.5472 C   0  0  0  0  0  0  0  0  0  0  0  0
    4.7479   -0.6628    0.6955 C   0  0  0  0  0  0  0  0  0  0  0  0
    3.8597   -1.9665    0.0147 S   0  0  0  0  0  0  0  0  0  0  0  0
    2.7714   -0.9267   -0.8027 C   0  0  0  0  0  0  0  0  0  0  0  0
    3.0916    0.3973   -0.5670 C   0  0  0  0  0  0  0  0  0  0  0  0
    4.2262    0.5686    0.2982 C   0  0  0  0  0  0  0  0  0  0  0  0
    4.8517    1.7482    0.7706 C   0  0  0  0  0  0  0  0  0  0  0  0
    1.7058   -1.5177   -1.6056 C   0  0  0  0  0  0  0  0  0  0  0  0
    1.6349   -2.7130   -1.8833 O   0  0  0  0  0  0  0  0  0  0  0  0
    0.7345   -0.6317   -2.0344 N   0  0  0  0  0  0  0  0  0  0  0  0
   -0.3918   -1.0468   -2.8457 C   0  0  0  0  0  0  0  0  0  0  0  0
   -1.4593   -1.8205   -2.0673 C   0  0  0  0  0  0  0  0  0  0  0  0
   -1.9461   -1.1444   -0.7832 C   0  0  0  0  0  0  0  0  0  0  0  0
   -2.7073    0.1535   -1.0151 C   0  0  0  0  0  0  0  0  0  0  0  0
   -2.8331    0.6298   -2.1426 O   0  0  0  0  0  0  0  0  0  0  0  0
   -3.2365    0.7750    0.1139 N   0  0  0  0  0  0  0  0  0  0  0  0
   -3.1757    0.1911    1.4608 C   0  0  0  0  0  0  0  0  0  0  0  0
   -3.5987    1.1331    2.5875 C   0  0  0  0  0  0  0  0  0  0  0  0
   -5.3245    1.7014    2.4239 S   0  0  0  0  0  0  0  0  0  0  0  0
   -5.4162    1.8810    0.6064 C   0  0  0  0  0  0  0  0  0  0  0  0
   -4.0466    1.9868   -0.0615 C   0  0  0  0  0  0  0  0  0  0  0  0
    7.3292    0.3615    2.6596 H   0  0  0  0  0  0  0  0  0  0  0  0
    6.2604   -1.7198    1.8445 H   0  0  0  0  0  0  0  0  0  0  0  0
    2.5561    1.2345   -0.9956 H   0  0  0  0  0  0  0  0  0  0  0  0
    4.4654    2.7190    0.4718 H   0  0  0  0  0  0  0  0  0  0  0  0
    0.7733    0.3376   -1.7598 H   0  0  0  0  0  0  0  0  0  0  0  0
   -0.0140   -1.6768   -3.6594 H   0  0  0  0  0  0  0  0  0  0  0  0
   -0.8050   -0.1444   -3.3045 H   0  0  0  0  0  0  0  0  0  0  0  0
   -2.3102   -2.0083   -2.7336 H   0  0  0  0  0  0  0  0  0  0  0  0
   -1.0568   -2.8038   -1.7945 H   0  0  0  0  0  0  0  0  0  0  0  0
   -2.6188   -1.8437   -0.2733 H   0  0  0  0  0  0  0  0  0  0  0  0
   -1.0958   -0.9457   -0.1230 H   0  0  0  0  0  0  0  0  0  0  0  0
   -2.1484   -0.1374    1.6487 H   0  0  0  0  0  0  0  0  0  0  0  0
   -3.8071   -0.7061    1.4581 H   0  0  0  0  0  0  0  0  0  0  0  0
   -2.9491    2.0145    2.6156 H   0  0  0  0  0  0  0  0  0  0  0  0
   -3.5015    0.6254    3.5524 H   0  0  0  0  0  0  0  0  0  0  0  0
   -6.0082    2.7756    0.3896 H   0  0  0  0  0  0  0  0  0  0  0  0
   -5.9633    1.0175    0.2131 H   0  0  0  0  0  0  0  0  0  0  0  0
   -3.4739    2.8287    0.3461 H   0  0  0  0  0  0  0  0  0  0  0  0
   -4.1946    2.1988   -1.1256 H   0  0  0  0  0  0  0  0  0  0  0  0
  1  2  1  0
  2  3  2  0
  3  4  1  0
  4  5  2  0
  5  6  1  0
  6  7  1  0
  7  8  2  0
  8  9  1  0
  9 10  2  0
  7 11  1  0
 11 12  2  0
 11 13  1  0
 13 14  1  0
 14 15  1  0
 15 16  1  0
 16 17  1  0
 17 18  2  0
 17 19  1  0
 19 20  1  0
 20 21  1  0
 21 22  1  0
 22 23  1  0
 23 24  1  0
 10  2  1  0
  9  5  1  0
 24 19  1  0
  3 25  1  0
  4 26  1  0
  8 27  1  0
 10 28  1  0
 13 29  1  0
 14 30  1  0
 14 31  1  0
 15 32  1  0
 15 33  1  0
 16 34  1  0
 16 35  1  0
 20 36  1  0
 20 37  1  0
 21 38  1  0
 21 39  1  0
 23 40  1  0
 23 41  1  0
 24 42  1  0
 24 43  1  0
M  END
>  <Unnamed: 0>  (103) 
554

>  <ID>  (103) 
TRAIN_0554

>  <Canonical_Smiles>  (103) 
Brc1ccc2sc(cc2c1)C(=O)NCCCC(=O)N3CCSCC3

>  <Inhibition>  (103) 
46.9

>  <TDC_conf_true_inhibitor>  (103) 
1

>  <TDC_conf_non_inhibitor>  (103) 
0

>  <split>  (103) 
1

$$$$
103
     RDKit          3D

 24 26  0  0  0  0  0  0  0  0999 V2000
   -1.0860    2.3040   -1.5577 Cl  0  0  0  0  0  0  0  0  0  0  0  0
   -2.2466    1.2230   -0.8761 C   0  0  0  0  0  0  0  0  0  0  0  0
   -3.5873    1.5643   -1.1041 C   0  0  0  0  0  0  0  0  0  0  0  0
   -4.6157    0.7713   -0.6054 C   0  0  0  0  0  0  0  0  0  0  0  0
   -4.2745   -0.3536    0.1156 C   0  0  0  0  0  0  0  0  0  0  0  0
   -2.9995   -0.7208    0.3597 N   0  0  0  0  0  0  0  0  0  0  0  0
   -1.9855    0.0652   -0.1346 C   0  0  0  0  0  0  0  0  0  0  0  0
   -0.6592   -0.3909    0.1666 N   0  0  0  0  0  0  0  0  0  0  0  0
   -0.3604   -1.5302    0.8965 C   0  0  0  0  0  0  0  0  0  0  0  0
    1.0066   -1.6251    0.9674 C   0  0  0  0  0  0  0  0  0  0  0  0
    1.4775   -0.5060    0.2561 C   0  0  0  0  0  0  0  0  0  0  0  0
    0.4753    0.2375   -0.2262 N   0  0  0  0  0  0  0  0  0  0  0  0
    3.0052   -0.1567    0.0446 C   0  0  0  0  0  0  0  0  0  0  0  0
    3.9656   -0.9166    0.5371 N   0  0  0  0  0  0  0  0  0  0  0  0
    5.1946   -0.3816    0.2047 C   0  0  0  0  0  0  0  0  0  0  0  0
    5.1597    0.7790   -0.5367 C   0  0  0  0  0  0  0  0  0  0  0  0
    3.5319    1.2247   -0.8337 S   0  0  0  0  0  0  0  0  0  0  0  0
   -3.8361    2.4562   -1.6757 H   0  0  0  0  0  0  0  0  0  0  0  0
   -5.6551    1.0285   -0.7775 H   0  0  0  0  0  0  0  0  0  0  0  0
   -5.0360   -1.0096    0.5288 H   0  0  0  0  0  0  0  0  0  0  0  0
   -1.1475   -2.1576    1.2913 H   0  0  0  0  0  0  0  0  0  0  0  0
    1.5910   -2.3895    1.4600 H   0  0  0  0  0  0  0  0  0  0  0  0
    6.0966   -0.8841    0.5325 H   0  0  0  0  0  0  0  0  0  0  0  0
    5.9854    1.3687   -0.9071 H   0  0  0  0  0  0  0  0  0  0  0  0
  1  2  1  0
  2  3  2  0
  3  4  1  0
  4  5  2  0
  5  6  1  0
  6  7  2  0
  7  8  1  0
  8  9  1  0
  9 10  2  0
 10 11  1  0
 11 12  2  0
 11 13  1  0
 13 14  2  0
 14 15  1  0
 15 16  2  0
 16 17  1  0
  7  2  1  0
 12  8  1  0
 17 13  1  0
  3 18  1  0
  4 19  1  0
  5 20  1  0
  9 21  1  0
 10 22  1  0
 15 23  1  0
 16 24  1  0
M  END
>  <Unnamed: 0>  (104) 
578

>  <ID>  (104) 
TRAIN_0578

>  <Canonical_Smiles>  (104) 
Clc1cccnc1n2ccc(n2)c3nccs3

>  <Inhibition>  (104) 
0.0

>  <TDC_conf_true_inhibitor>  (104) 
0

>  <TDC_conf_non_inhibitor>  (104) 
1

>  <split>  (104) 
1

$$$$
104
     RDKit          3D

 32 36  0  0  0  0  0  0  0  0999 V2000
    4.8496    0.1165   -0.7197 C   0  0  0  0  0  0  0  0  0  0  0  0
    3.4155    0.0571   -0.6948 N   0  0  0  0  0  0  0  0  0  0  0  0
    2.5904   -0.1254   -1.7974 C   0  0  0  0  0  0  0  0  0  0  0  0
    2.8806   -0.2683   -2.9687 O   0  0  0  0  0  0  0  0  0  0  0  0
    1.2150   -0.1135   -1.2546 C   0  0  0  0  0  0  0  0  0  0  0  0
   -0.0080   -0.2493   -1.8747 C   0  0  0  0  0  0  0  0  0  0  0  0
   -1.1670   -0.1942   -1.0784 C   0  0  0  0  0  0  0  0  0  0  0  0
   -2.4222   -0.3305   -1.6911 C   0  0  0  0  0  0  0  0  0  0  0  0
   -3.5492   -0.2749   -0.9017 C   0  0  0  0  0  0  0  0  0  0  0  0
   -4.8313   -0.3893   -1.3406 O   0  0  0  0  0  0  0  0  0  0  0  0
   -5.5560   -0.2563   -0.1005 C   0  0  0  0  0  0  0  0  0  0  0  0
   -4.6994   -0.0667    1.0450 O   0  0  0  0  0  0  0  0  0  0  0  0
   -3.4739   -0.0915    0.4549 C   0  0  0  0  0  0  0  0  0  0  0  0
   -2.2667    0.0479    1.1073 C   0  0  0  0  0  0  0  0  0  0  0  0
   -1.0729    0.0005    0.3570 C   0  0  0  0  0  0  0  0  0  0  0  0
    0.2210    0.1378    0.9651 C   0  0  0  0  0  0  0  0  0  0  0  0
    0.5847    0.3343    2.3249 C   0  0  0  0  0  0  0  0  0  0  0  0
    1.9403    0.4456    2.7165 C   0  0  0  0  0  0  0  0  0  0  0  0
    2.9782    0.3662    1.7768 C   0  0  0  0  0  0  0  0  0  0  0  0
    2.6275    0.1758    0.4583 C   0  0  0  0  0  0  0  0  0  0  0  0
    1.3078    0.0701    0.0973 C   0  0  0  0  0  0  0  0  0  0  0  0
    5.2558   -0.6870   -0.0985 H   0  0  0  0  0  0  0  0  0  0  0  0
    5.1783    1.0858   -0.3339 H   0  0  0  0  0  0  0  0  0  0  0  0
    5.2165   -0.0034   -1.7429 H   0  0  0  0  0  0  0  0  0  0  0  0
   -0.0522   -0.3941   -2.9503 H   0  0  0  0  0  0  0  0  0  0  0  0
   -2.5228   -0.4771   -2.7621 H   0  0  0  0  0  0  0  0  0  0  0  0
   -6.2316    0.6032   -0.1793 H   0  0  0  0  0  0  0  0  0  0  0  0
   -6.1545   -1.1613    0.0551 H   0  0  0  0  0  0  0  0  0  0  0  0
   -2.2648    0.1907    2.1819 H   0  0  0  0  0  0  0  0  0  0  0  0
   -0.1810    0.4029    3.0939 H   0  0  0  0  0  0  0  0  0  0  0  0
    2.1792    0.5956    3.7678 H   0  0  0  0  0  0  0  0  0  0  0  0
    4.0129    0.4527    2.0873 H   0  0  0  0  0  0  0  0  0  0  0  0
  1  2  1  0
  2  3  1  0
  3  4  2  0
  3  5  1  0
  5  6  2  0
  6  7  1  0
  7  8  2  0
  8  9  1  0
  9 10  1  0
 10 11  1  0
 11 12  1  0
 12 13  1  0
 13 14  1  0
 14 15  2  0
 15 16  1  0
 16 17  2  0
 17 18  1  0
 18 19  2  0
 19 20  1  0
 20 21  2  0
 20  2  1  0
 21  5  1  0
 15  7  1  0
 13  9  2  0
 21 16  1  0
  1 22  1  0
  1 23  1  0
  1 24  1  0
  6 25  1  0
  8 26  1  0
 11 27  1  0
 11 28  1  0
 14 29  1  0
 17 30  1  0
 18 31  1  0
 19 32  1  0
M  END
>  <Unnamed: 0>  (105) 
579

>  <ID>  (105) 
TRAIN_0579

>  <Canonical_Smiles>  (105) 
CN1C(=O)c2cc3cc4OCOc4cc3c5cccc1c25

>  <Inhibition>  (105) 
89.5

>  <TDC_conf_true_inhibitor>  (105) 
1

>  <TDC_conf_non_inhibitor>  (105) 
0

>  <split>  (105) 
1

$$$$
105
     RDKit          3D

 49 51  0  0  0  0  0  0  0  0999 V2000
    6.3028   -0.6028    0.4407 C   0  0  0  0  0  0  0  0  0  0  0  0
    5.5279    0.5701   -0.1395 C   0  0  0  0  0  0  0  0  0  0  0  0
    4.0837    0.6541    0.3589 C   0  0  0  0  0  0  0  0  0  0  0  0
    3.2219   -0.5313   -0.0856 C   0  0  0  0  0  0  0  0  0  0  0  0
    1.7785   -0.3452    0.3180 C   0  0  0  0  0  0  0  0  0  0  0  0
    1.4944   -0.7460    1.5753 N   0  0  0  0  0  0  0  0  0  0  0  0
    0.2502   -0.5637    2.0058 C   0  0  0  0  0  0  0  0  0  0  0  0
   -0.0512   -0.9763    3.2881 N   0  0  0  0  0  0  0  0  0  0  0  0
   -0.7395   -0.0617    1.2757 N   0  0  0  0  0  0  0  0  0  0  0  0
   -0.4675    0.3174    0.0156 C   0  0  0  0  0  0  0  0  0  0  0  0
   -1.5182    0.8301   -0.7744 N   0  0  0  0  0  0  0  0  0  0  0  0
   -2.1801   -0.2127   -1.5805 C   0  0  0  0  0  0  0  0  0  0  0  0
   -3.0562   -1.1478   -0.7431 C   0  0  0  0  0  0  0  0  0  0  0  0
   -3.9849   -0.3853    0.1642 C   0  0  0  0  0  0  0  0  0  0  0  0
   -5.1221   -1.0140    0.6908 C   0  0  0  0  0  0  0  0  0  0  0  0
   -5.9678   -0.3287    1.5618 C   0  0  0  0  0  0  0  0  0  0  0  0
   -5.6797    0.9851    1.9207 C   0  0  0  0  0  0  0  0  0  0  0  0
   -4.5432    1.6140    1.4112 C   0  0  0  0  0  0  0  0  0  0  0  0
   -3.6790    0.9357    0.5362 C   0  0  0  0  0  0  0  0  0  0  0  0
   -2.4679    1.6667   -0.0138 C   0  0  0  0  0  0  0  0  0  0  0  0
    0.8204    0.2293   -0.5143 C   0  0  0  0  0  0  0  0  0  0  0  0
    1.1456    0.7410   -1.8943 C   0  0  0  0  0  0  0  0  0  0  0  0
    1.1646   -0.3336   -2.9491 C   0  0  0  0  0  0  0  0  0  0  0  0
    1.0066   -1.5340   -2.8034 O   0  0  0  0  0  0  0  0  0  0  0  0
    1.4141    0.1690   -4.1770 O   0  0  0  0  0  0  0  0  0  0  0  0
    7.3498   -0.5541    0.1246 H   0  0  0  0  0  0  0  0  0  0  0  0
    6.2782   -0.5875    1.5348 H   0  0  0  0  0  0  0  0  0  0  0  0
    5.8984   -1.5597    0.0980 H   0  0  0  0  0  0  0  0  0  0  0  0
    5.5416    0.5109   -1.2341 H   0  0  0  0  0  0  0  0  0  0  0  0
    6.0441    1.4981    0.1339 H   0  0  0  0  0  0  0  0  0  0  0  0
    3.6478    1.5888   -0.0157 H   0  0  0  0  0  0  0  0  0  0  0  0
    4.0768    0.7308    1.4537 H   0  0  0  0  0  0  0  0  0  0  0  0
    3.5875   -1.4532    0.3835 H   0  0  0  0  0  0  0  0  0  0  0  0
    3.3109   -0.6939   -1.1644 H   0  0  0  0  0  0  0  0  0  0  0  0
   -1.0407   -1.1772    3.3402 H   0  0  0  0  0  0  0  0  0  0  0  0
    0.5874   -1.7102    3.5586 H   0  0  0  0  0  0  0  0  0  0  0  0
   -1.4549   -0.8038   -2.1479 H   0  0  0  0  0  0  0  0  0  0  0  0
   -2.8040    0.2918   -2.3307 H   0  0  0  0  0  0  0  0  0  0  0  0
   -2.4332   -1.8091   -0.1294 H   0  0  0  0  0  0  0  0  0  0  0  0
   -3.6374   -1.7823   -1.4229 H   0  0  0  0  0  0  0  0  0  0  0  0
   -5.3508   -2.0439    0.4267 H   0  0  0  0  0  0  0  0  0  0  0  0
   -6.8482   -0.8219    1.9646 H   0  0  0  0  0  0  0  0  0  0  0  0
   -6.3366    1.5193    2.6020 H   0  0  0  0  0  0  0  0  0  0  0  0
   -4.3281    2.6389    1.7057 H   0  0  0  0  0  0  0  0  0  0  0  0
   -1.9572    2.2147    0.7897 H   0  0  0  0  0  0  0  0  0  0  0  0
   -2.8452    2.4283   -0.7090 H   0  0  0  0  0  0  0  0  0  0  0  0
    2.1245    1.2331   -1.8850 H   0  0  0  0  0  0  0  0  0  0  0  0
    0.4272    1.5093   -2.2017 H   0  0  0  0  0  0  0  0  0  0  0  0
    1.4089   -0.6171   -4.7632 H   0  0  0  0  0  0  0  0  0  0  0  0
  1  2  1  0
  2  3  1  0
  3  4  1  0
  4  5  1  0
  5  6  2  0
  6  7  1  0
  7  8  1  0
  7  9  2  0
  9 10  1  0
 10 11  1  0
 11 12  1  0
 12 13  1  0
 13 14  1  0
 14 15  2  0
 15 16  1  0
 16 17  2  0
 17 18  1  0
 18 19  2  0
 19 20  1  0
 10 21  2  0
 21 22  1  0
 22 23  1  0
 23 24  2  0
 23 25  1  0
 21  5  1  0
 20 11  1  0
 19 14  1  0
  1 26  1  0
  1 27  1  0
  1 28  1  0
  2 29  1  0
  2 30  1  0
  3 31  1  0
  3 32  1  0
  4 33  1  0
  4 34  1  0
  8 35  1  0
  8 36  1  0
 12 37  1  0
 12 38  1  0
 13 39  1  0
 13 40  1  0
 15 41  1  0
 16 42  1  0
 17 43  1  0
 18 44  1  0
 20 45  1  0
 20 46  1  0
 22 47  1  0
 22 48  1  0
 25 49  1  0
M  END
>  <Unnamed: 0>  (106) 
580

>  <ID>  (106) 
TRAIN_0580

>  <Canonical_Smiles>  (106) 
CCCCc1nc(N)nc(N2CCc3ccccc3C2)c1CC(=O)O

>  <Inhibition>  (106) 
5.05

>  <TDC_conf_true_inhibitor>  (106) 
0

>  <TDC_conf_non_inhibitor>  (106) 
1

>  <split>  (106) 
1

$$$$
106
     RDKit          3D

 34 35  0  0  0  0  0  0  0  0999 V2000
   -4.4198   -1.7379    0.2961 C   0  0  0  0  0  0  0  0  0  0  0  0
   -4.2551   -0.7583   -0.7220 O   0  0  0  0  0  0  0  0  0  0  0  0
   -3.1854    0.0874   -0.6285 C   0  0  0  0  0  0  0  0  0  0  0  0
   -2.2219    0.0422    0.3842 C   0  0  0  0  0  0  0  0  0  0  0  0
   -1.1367    0.9278    0.3654 C   0  0  0  0  0  0  0  0  0  0  0  0
   -0.2344    0.8578    1.3977 O   0  0  0  0  0  0  0  0  0  0  0  0
    1.0722    0.6118    1.1513 C   0  0  0  0  0  0  0  0  0  0  0  0
    1.9297    1.1418    2.0247 N   0  0  0  0  0  0  0  0  0  0  0  0
    3.1375    0.7614    1.5553 N   0  0  0  0  0  0  0  0  0  0  0  0
    4.3259    1.2042    2.2505 C   0  0  0  0  0  0  0  0  0  0  0  0
    3.0535   -0.0443    0.4454 C   0  0  0  0  0  0  0  0  0  0  0  0
    4.4738   -0.6838   -0.3278 S   0  0  0  0  0  0  0  0  0  0  0  0
    4.2219   -2.4634   -0.1208 C   0  0  0  0  0  0  0  0  0  0  0  0
    1.7092   -0.1539    0.1553 C   0  0  0  0  0  0  0  0  0  0  0  0
    1.1191   -0.8978   -0.9026 C   0  0  0  0  0  0  0  0  0  0  0  0
    0.6333   -1.5212   -1.7524 N   0  0  0  0  0  0  0  0  0  0  0  0
   -1.0076    1.8953   -0.6344 C   0  0  0  0  0  0  0  0  0  0  0  0
   -1.9589    1.9587   -1.6485 C   0  0  0  0  0  0  0  0  0  0  0  0
   -3.0344    1.0581   -1.6300 C   0  0  0  0  0  0  0  0  0  0  0  0
   -4.0207    1.1709   -2.6878 N   0  0  0  0  0  4  0  0  0  0  0  0
   -5.1743    1.4846   -2.3633 O   0  0  0  0  0  0  0  0  0  0  0  0
   -3.6175    1.0088   -3.8484 O   0  0  0  0  0  1  0  0  0  0  0  0
   -4.5646   -1.2687    1.2747 H   0  0  0  0  0  0  0  0  0  0  0  0
   -5.3223   -2.3118    0.0648 H   0  0  0  0  0  0  0  0  0  0  0  0
   -3.5759   -2.4353    0.3114 H   0  0  0  0  0  0  0  0  0  0  0  0
   -2.2792   -0.6747    1.1970 H   0  0  0  0  0  0  0  0  0  0  0  0
    4.8583    0.3257    2.6232 H   0  0  0  0  0  0  0  0  0  0  0  0
    4.0392    1.8427    3.0906 H   0  0  0  0  0  0  0  0  0  0  0  0
    4.9451    1.7740    1.5535 H   0  0  0  0  0  0  0  0  0  0  0  0
    5.1114   -2.9941   -0.4707 H   0  0  0  0  0  0  0  0  0  0  0  0
    3.3648   -2.8067   -0.7049 H   0  0  0  0  0  0  0  0  0  0  0  0
    4.0640   -2.7079    0.9333 H   0  0  0  0  0  0  0  0  0  0  0  0
   -0.1816    2.6023   -0.6192 H   0  0  0  0  0  0  0  0  0  0  0  0
   -1.8688    2.7042   -2.4355 H   0  0  0  0  0  0  0  0  0  0  0  0
  1  2  1  0
  2  3  1  0
  3  4  2  0
  4  5  1  0
  5  6  1  0
  6  7  1  0
  7  8  2  0
  8  9  1  0
  9 10  1  0
  9 11  1  0
 11 12  1  0
 12 13  1  0
 11 14  2  0
 14 15  1  0
 15 16  3  0
  5 17  2  0
 17 18  1  0
 18 19  2  0
 19 20  1  0
 20 21  2  0
 20 22  1  0
 19  3  1  0
 14  7  1  0
  1 23  1  0
  1 24  1  0
  1 25  1  0
  4 26  1  0
 10 27  1  0
 10 28  1  0
 10 29  1  0
 13 30  1  0
 13 31  1  0
 13 32  1  0
 17 33  1  0
 18 34  1  0
M  CHG  2  20   1  22  -1
M  END
>  <Unnamed: 0>  (107) 
591

>  <ID>  (107) 
TRAIN_0591

>  <Canonical_Smiles>  (107) 
COc1cc(Oc2nn(C)c(SC)c2C#N)ccc1[N+](=O)[O-]

>  <Inhibition>  (107) 
26.6

>  <TDC_conf_true_inhibitor>  (107) 
0

>  <TDC_conf_non_inhibitor>  (107) 
1

>  <split>  (107) 
1

$$$$
107
     RDKit          3D

 28 30  0  0  0  0  0  0  0  0999 V2000
   -5.3751    0.6922   -1.3479 F   0  0  0  0  0  0  0  0  0  0  0  0
   -4.3461    0.2475   -0.6154 C   0  0  0  0  0  0  0  0  0  0  0  0
   -4.5968   -0.5004    0.5269 C   0  0  0  0  0  0  0  0  0  0  0  0
   -3.5264   -0.9622    1.2875 C   0  0  0  0  0  0  0  0  0  0  0  0
   -2.2182   -0.6660    0.8896 C   0  0  0  0  0  0  0  0  0  0  0  0
   -1.1584   -1.1375    1.6639 N   0  0  0  0  0  0  0  0  0  0  0  0
    0.1572   -0.9134    1.3781 C   0  0  0  0  0  0  0  0  0  0  0  0
    1.0371   -1.3638    2.1063 O   0  0  0  0  0  0  0  0  0  0  0  0
    0.4732   -0.1075    0.1561 C   0  0  0  0  0  0  0  0  0  0  0  0
   -0.5368    0.3564   -0.6109 C   0  0  0  0  0  0  0  0  0  0  0  0
   -0.2161    1.2874   -2.0488 Cl  0  0  0  0  0  0  0  0  0  0  0  0
   -1.9509    0.0895   -0.2639 C   0  0  0  0  0  0  0  0  0  0  0  0
   -3.0446    0.5448   -1.0152 C   0  0  0  0  0  0  0  0  0  0  0  0
    1.8928    0.1435   -0.1629 C   0  0  0  0  0  0  0  0  0  0  0  0
    2.6271   -0.7966   -0.8963 C   0  0  0  0  0  0  0  0  0  0  0  0
    3.9688   -0.5566   -1.2035 C   0  0  0  0  0  0  0  0  0  0  0  0
    4.5872    0.6235   -0.7807 C   0  0  0  0  0  0  0  0  0  0  0  0
    6.2472    0.8554   -1.1995 Cl  0  0  0  0  0  0  0  0  0  0  0  0
    3.8588    1.5656   -0.0459 C   0  0  0  0  0  0  0  0  0  0  0  0
    4.5554    3.0473    0.5078 Cl  0  0  0  0  0  0  0  0  0  0  0  0
    2.5155    1.3249    0.2623 C   0  0  0  0  0  0  0  0  0  0  0  0
   -5.6210   -0.7168    0.8148 H   0  0  0  0  0  0  0  0  0  0  0  0
   -3.7216   -1.5476    2.1821 H   0  0  0  0  0  0  0  0  0  0  0  0
   -1.3331   -1.6839    2.4980 H   0  0  0  0  0  0  0  0  0  0  0  0
   -2.9214    1.1346   -1.9184 H   0  0  0  0  0  0  0  0  0  0  0  0
    2.1634   -1.7233   -1.2291 H   0  0  0  0  0  0  0  0  0  0  0  0
    4.5276   -1.2967   -1.7716 H   0  0  0  0  0  0  0  0  0  0  0  0
    1.9551    2.0597    0.8366 H   0  0  0  0  0  0  0  0  0  0  0  0
  1  2  1  0
  2  3  2  0
  3  4  1  0
  4  5  2  0
  5  6  1  0
  6  7  1  0
  7  8  2  0
  7  9  1  0
  9 10  2  0
 10 11  1  0
 10 12  1  0
 12 13  2  0
  9 14  1  0
 14 15  2  0
 15 16  1  0
 16 17  2  0
 17 18  1  0
 17 19  1  0
 19 20  1  0
 19 21  2  0
 13  2  1  0
 12  5  1  0
 21 14  1  0
  3 22  1  0
  4 23  1  0
  6 24  1  0
 13 25  1  0
 15 26  1  0
 16 27  1  0
 21 28  1  0
M  END
>  <Unnamed: 0>  (108) 
604

>  <ID>  (108) 
TRAIN_0604

>  <Canonical_Smiles>  (108) 
Fc1ccc2NC(=O)C(=C(Cl)c2c1)c3ccc(Cl)c(Cl)c3

>  <Inhibition>  (108) 
15.4

>  <TDC_conf_true_inhibitor>  (108) 
0

>  <TDC_conf_non_inhibitor>  (108) 
1

>  <split>  (108) 
1

$$$$
108
     RDKit          3D

 32 34  0  0  0  0  0  0  0  0999 V2000
    5.0911   -1.5612    0.0268 C   0  0  0  0  0  0  0  0  0  0  0  0
    4.2779   -1.0588   -1.0255 O   0  0  0  0  0  0  0  0  0  0  0  0
    3.1831   -0.3231   -0.6649 C   0  0  0  0  0  0  0  0  0  0  0  0
    2.7990   -0.0058    0.6374 C   0  0  0  0  0  0  0  0  0  0  0  0
    1.6492    0.7597    0.8673 C   0  0  0  0  0  0  0  0  0  0  0  0
    0.8630    1.2129   -0.2016 C   0  0  0  0  0  0  0  0  0  0  0  0
   -0.3675    2.0504    0.0511 C   0  0  0  0  0  0  0  0  0  0  0  0
   -1.5744    1.4473   -0.5035 N   0  0  0  0  0  0  0  0  0  0  0  0
   -2.1313    1.9834   -1.6147 N   0  0  0  0  0  0  0  0  0  0  0  0
   -3.2085    1.2244   -1.8231 C   0  0  0  0  0  0  0  0  0  0  0  0
   -3.3654    0.2157   -0.8488 C   0  0  0  0  0  0  0  0  0  0  0  0
   -4.2960   -0.8095   -0.6034 C   0  0  0  0  0  0  0  0  0  0  0  0
   -4.1002   -1.6332    0.5096 C   0  0  0  0  0  0  0  0  0  0  0  0
   -5.3389   -3.0207    0.8616 Br  0  0  0  0  0  0  0  0  0  0  0  0
   -3.0128   -1.4535    1.3631 C   0  0  0  0  0  0  0  0  0  0  0  0
   -2.0795   -0.4372    1.1305 C   0  0  0  0  0  0  0  0  0  0  0  0
   -2.2834    0.3844    0.0125 C   0  0  0  0  0  0  0  0  0  0  0  0
    1.2626    0.8993   -1.5075 C   0  0  0  0  0  0  0  0  0  0  0  0
    2.4099    0.1352   -1.7327 C   0  0  0  0  0  0  0  0  0  0  0  0
    5.5325   -0.7450    0.6083 H   0  0  0  0  0  0  0  0  0  0  0  0
    4.5275   -2.2456    0.6695 H   0  0  0  0  0  0  0  0  0  0  0  0
    5.9105   -2.1283   -0.4254 H   0  0  0  0  0  0  0  0  0  0  0  0
    3.3725   -0.3354    1.4973 H   0  0  0  0  0  0  0  0  0  0  0  0
    1.3765    0.9975    1.8935 H   0  0  0  0  0  0  0  0  0  0  0  0
   -0.5486    2.1921    1.1228 H   0  0  0  0  0  0  0  0  0  0  0  0
   -0.2414    3.0441   -0.3947 H   0  0  0  0  0  0  0  0  0  0  0  0
   -3.8419    1.4373   -2.6745 H   0  0  0  0  0  0  0  0  0  0  0  0
   -5.1436   -0.9530   -1.2660 H   0  0  0  0  0  0  0  0  0  0  0  0
   -2.8762   -2.1078    2.2214 H   0  0  0  0  0  0  0  0  0  0  0  0
   -1.2295   -0.3055    1.7917 H   0  0  0  0  0  0  0  0  0  0  0  0
    0.6807    1.2444   -2.3614 H   0  0  0  0  0  0  0  0  0  0  0  0
    2.7032   -0.1047   -2.7521 H   0  0  0  0  0  0  0  0  0  0  0  0
  1  2  1  0
  2  3  1  0
  3  4  2  0
  4  5  1  0
  5  6  2  0
  6  7  1  0
  7  8  1  0
  8  9  1  0
  9 10  2  0
 10 11  1  0
 11 12  2  0
 12 13  1  0
 13 14  1  0
 13 15  2  0
 15 16  1  0
 16 17  2  0
  6 18  1  0
 18 19  2  0
 19  3  1  0
 17  8  1  0
 17 11  1  0
  1 20  1  0
  1 21  1  0
  1 22  1  0
  4 23  1  0
  5 24  1  0
  7 25  1  0
  7 26  1  0
 10 27  1  0
 12 28  1  0
 15 29  1  0
 16 30  1  0
 18 31  1  0
 19 32  1  0
M  END
>  <Unnamed: 0>  (109) 
607

>  <ID>  (109) 
TRAIN_0607

>  <Canonical_Smiles>  (109) 
COc1ccc(Cn2ncc3cc(Br)ccc23)cc1

>  <Inhibition>  (109) 
55.5

>  <TDC_conf_true_inhibitor>  (109) 
1

>  <TDC_conf_non_inhibitor>  (109) 
0

>  <split>  (109) 
1

$$$$
109
     RDKit          3D

 27 29  0  0  0  0  0  0  0  0999 V2000
   -3.3023   -2.0537   -0.0729 C   0  0  0  0  0  0  0  0  0  0  0  0
   -1.9498   -1.6592   -0.2592 O   0  0  0  0  0  0  0  0  0  0  0  0
   -1.6564   -0.3221   -0.1496 C   0  0  0  0  0  0  0  0  0  0  0  0
   -2.5834    0.6646    0.1838 C   0  0  0  0  0  0  0  0  0  0  0  0
   -2.1800    1.9931    0.2754 C   0  0  0  0  0  0  0  0  0  0  0  0
   -0.8522    2.3446    0.0231 C   0  0  0  0  0  0  0  0  0  0  0  0
    0.1164    1.3798   -0.3243 C   0  0  0  0  0  0  0  0  0  0  0  0
    1.5025    1.8418   -0.6322 C   0  0  0  0  0  0  0  0  0  0  0  0
    2.6268    1.1402   -0.3847 C   0  0  0  0  0  0  0  0  0  0  0  0
    2.6293   -0.1862    0.1149 C   0  0  0  0  0  0  0  0  0  0  0  0
    3.9928   -0.7798    0.9827 S   0  0  0  0  0  0  0  0  0  0  0  0
    3.3084   -2.3392    1.1389 C   0  0  0  0  0  0  0  0  0  0  0  0
    2.0743   -2.4211    0.5363 C   0  0  0  0  0  0  0  0  0  0  0  0
    1.6818   -1.1775   -0.0259 C   0  0  0  0  0  0  0  0  0  0  0  0
    0.5282   -1.0108   -0.7091 O   0  0  0  0  0  0  0  0  0  0  0  0
   -0.3091    0.0375   -0.3849 C   0  0  0  0  0  0  0  0  0  0  0  0
    1.6855    3.1507   -1.1920 C   0  0  0  0  0  0  0  0  0  0  0  0
    1.8382    4.2137   -1.6325 N   0  0  0  0  0  0  0  0  0  0  0  0
   -3.6380   -1.8402    0.9471 H   0  0  0  0  0  0  0  0  0  0  0  0
   -3.3579   -3.1365   -0.2209 H   0  0  0  0  0  0  0  0  0  0  0  0
   -3.9576   -1.5830   -0.8133 H   0  0  0  0  0  0  0  0  0  0  0  0
   -3.6246    0.4338    0.3823 H   0  0  0  0  0  0  0  0  0  0  0  0
   -2.9020    2.7628    0.5397 H   0  0  0  0  0  0  0  0  0  0  0  0
   -0.5924    3.3996    0.1084 H   0  0  0  0  0  0  0  0  0  0  0  0
    3.5968    1.5928   -0.5902 H   0  0  0  0  0  0  0  0  0  0  0  0
    3.8485   -3.1224    1.6532 H   0  0  0  0  0  0  0  0  0  0  0  0
    1.4763   -3.3231    0.5059 H   0  0  0  0  0  0  0  0  0  0  0  0
  1  2  1  0
  2  3  1  0
  3  4  2  0
  4  5  1  0
  5  6  2  0
  6  7  1  0
  7  8  1  0
  8  9  2  0
  9 10  1  0
 10 11  1  0
 11 12  1  0
 12 13  2  0
 13 14  1  0
 14 15  1  0
 15 16  1  0
  8 17  1  0
 17 18  3  0
 16  3  1  0
 16  7  2  0
 14 10  2  0
  1 19  1  0
  1 20  1  0
  1 21  1  0
  4 22  1  0
  5 23  1  0
  6 24  1  0
  9 25  1  0
 12 26  1  0
 13 27  1  0
M  END
>  <Unnamed: 0>  (110) 
613

>  <ID>  (110) 
TRAIN_0613

>  <Canonical_Smiles>  (110) 
COc1cccc2C(=Cc3sccc3Oc12)C#N

>  <Inhibition>  (110) 
29.7

>  <TDC_conf_true_inhibitor>  (110) 
1

>  <TDC_conf_non_inhibitor>  (110) 
0

>  <split>  (110) 
1

$$$$
110
     RDKit          3D

 39 41  0  0  0  0  0  0  0  0999 V2000
    0.7847   -1.6231   -0.2395 C   0  0  0  0  0  0  0  0  0  0  0  0
    0.7228   -0.1311   -0.1631 C   0  0  0  0  0  0  0  0  0  0  0  0
    1.7806    0.6174    0.2007 C   0  0  0  0  0  0  0  0  0  0  0  0
    3.1686    0.3158    0.5026 C   0  0  0  0  0  0  0  0  0  0  0  0
    3.6584    0.3806    1.8143 C   0  0  0  0  0  0  0  0  0  0  0  0
    4.9909    0.0598    2.0892 C   0  0  0  0  0  0  0  0  0  0  0  0
    5.8366   -0.3352    1.0553 C   0  0  0  0  0  0  0  0  0  0  0  0
    7.4750   -0.7336    1.3947 Cl  0  0  0  0  0  0  0  0  0  0  0  0
    5.3613   -0.4129   -0.2517 C   0  0  0  0  0  0  0  0  0  0  0  0
    4.0292   -0.0915   -0.5270 C   0  0  0  0  0  0  0  0  0  0  0  0
    1.3546    2.2796    0.3065 S   0  0  0  0  0  6  0  0  0  0  0  0
    1.5100    2.7786    1.6553 O   0  0  0  0  0  0  0  0  0  0  0  0
    1.8315    3.0095   -0.8473 O   0  0  0  0  0  0  0  0  0  0  0  0
   -0.3022    2.0283    0.0659 N   0  0  0  0  0  0  0  0  0  0  0  0
   -0.4866    0.6741   -0.3967 C   0  0  0  0  0  0  0  0  0  0  0  0
   -1.7038    0.3881   -0.9068 C   0  0  0  0  0  0  0  0  0  0  0  0
   -2.0648   -0.9247   -1.4472 C   0  0  0  0  0  0  0  0  0  0  0  0
   -1.3126   -1.6039   -2.1293 O   0  0  0  0  0  0  0  0  0  0  0  0
   -3.3213   -1.3299   -1.1706 O   0  0  0  0  0  0  0  0  0  0  0  0
   -4.1902   -0.4609   -0.4417 C   0  0  0  0  0  0  0  0  0  0  0  0
   -5.6159   -0.8381   -0.8442 C   0  0  0  0  0  0  0  0  0  0  0  0
   -4.0169   -0.6661    1.0655 C   0  0  0  0  0  0  0  0  0  0  0  0
   -4.0232    0.9145   -0.7898 O   0  0  0  0  0  0  0  0  0  0  0  0
   -2.7746    1.3982   -0.9490 C   0  0  0  0  0  0  0  0  0  0  0  0
   -2.5619    2.5923   -1.1238 O   0  0  0  0  0  0  0  0  0  0  0  0
   -0.1104   -2.0803    0.1936 H   0  0  0  0  0  0  0  0  0  0  0  0
    1.6316   -2.0240    0.3287 H   0  0  0  0  0  0  0  0  0  0  0  0
    0.9102   -1.9565   -1.2731 H   0  0  0  0  0  0  0  0  0  0  0  0
    3.0122    0.6859    2.6364 H   0  0  0  0  0  0  0  0  0  0  0  0
    5.3602    0.1221    3.1098 H   0  0  0  0  0  0  0  0  0  0  0  0
    6.0202   -0.7202   -1.0598 H   0  0  0  0  0  0  0  0  0  0  0  0
    3.6742   -0.1544   -1.5545 H   0  0  0  0  0  0  0  0  0  0  0  0
   -0.7931    2.7899   -0.4236 H   0  0  0  0  0  0  0  0  0  0  0  0
   -6.3550   -0.2077   -0.3381 H   0  0  0  0  0  0  0  0  0  0  0  0
   -5.8293   -1.8897   -0.6246 H   0  0  0  0  0  0  0  0  0  0  0  0
   -5.7571   -0.6986   -1.9226 H   0  0  0  0  0  0  0  0  0  0  0  0
   -4.1876   -1.7118    1.3429 H   0  0  0  0  0  0  0  0  0  0  0  0
   -4.7025   -0.0266    1.6317 H   0  0  0  0  0  0  0  0  0  0  0  0
   -3.0038   -0.4141    1.3951 H   0  0  0  0  0  0  0  0  0  0  0  0
  1  2  1  0
  2  3  2  0
  3  4  1  0
  4  5  2  0
  5  6  1  0
  6  7  2  0
  7  8  1  0
  7  9  1  0
  9 10  2  0
  3 11  1  0
 11 12  2  0
 11 13  2  0
 11 14  1  0
 14 15  1  0
 15 16  2  3
 16 17  1  0
 17 18  2  0
 17 19  1  0
 19 20  1  0
 20 21  1  0
 20 22  1  0
 20 23  1  0
 23 24  1  0
 24 25  2  0
 15  2  1  0
 10  4  1  0
 24 16  1  0
  1 26  1  0
  1 27  1  0
  1 28  1  0
  5 29  1  0
  6 30  1  0
  9 31  1  0
 10 32  1  0
 14 33  1  0
 21 34  1  0
 21 35  1  0
 21 36  1  0
 22 37  1  0
 22 38  1  0
 22 39  1  0
M  END
>  <Unnamed: 0>  (111) 
616

>  <ID>  (111) 
TRAIN_0616

>  <Canonical_Smiles>  (111) 
CC1=C(c2ccc(Cl)cc2)S(=O)(=O)NC1=C3C(=O)OC(C)(C)OC3=O

>  <Inhibition>  (111) 
0.0

>  <TDC_conf_true_inhibitor>  (111) 
0

>  <TDC_conf_non_inhibitor>  (111) 
1

>  <split>  (111) 
1

$$$$
111
     RDKit          3D

 47 49  0  0  0  0  0  0  0  0999 V2000
    4.7659   -0.7757    2.2602 C   0  0  0  0  0  0  0  0  0  0  0  0
    4.7890    0.0005    0.9390 C   0  0  0  0  0  0  0  0  0  0  0  0
    5.6920   -0.6673   -0.1039 C   0  0  0  0  0  0  0  0  0  0  0  0
    5.3203    1.4156    1.2134 C   0  0  0  0  0  0  0  0  0  0  0  0
    3.4504    0.2063    0.4203 O   0  0  0  0  0  0  0  0  0  0  0  0
    2.6670   -0.8457    0.0688 C   0  0  0  0  0  0  0  0  0  0  0  0
    2.9992   -2.0213    0.1652 O   0  0  0  0  0  0  0  0  0  0  0  0
    1.4366   -0.4374   -0.4098 N   0  0  0  0  0  0  0  0  0  0  0  0
    0.4350   -1.4345   -0.7757 C   0  0  0  0  0  0  0  0  0  0  0  0
   -0.9901   -0.8628   -0.6874 C   0  0  0  0  0  0  0  0  0  0  0  0
   -1.2139    0.3175   -1.5563 N   0  0  0  0  0  0  0  0  0  0  0  0
   -2.3289    1.1465   -1.0578 C   0  0  0  0  0  0  0  0  0  0  0  0
   -3.6647    0.4446   -1.0888 C   0  0  0  0  0  0  0  0  0  0  0  0
   -4.1434   -0.1657   -2.2635 C   0  0  0  0  0  0  0  0  0  0  0  0
   -5.3981   -0.7997   -2.2961 C   0  0  0  0  0  0  0  0  0  0  0  0
   -6.2052   -0.8295   -1.1586 C   0  0  0  0  0  0  0  0  0  0  0  0
   -5.7269   -0.2187   -0.0200 C   0  0  0  0  0  0  0  0  0  0  0  0
   -6.3870   -0.1446    1.1689 O   0  0  0  0  0  0  0  0  0  0  0  0
   -5.4268    0.5737    1.9680 C   0  0  0  0  0  0  0  0  0  0  0  0
   -4.2414    0.9505    1.2386 O   0  0  0  0  0  0  0  0  0  0  0  0
   -4.4974    0.4028    0.0166 C   0  0  0  0  0  0  0  0  0  0  0  0
    0.0176    1.1171   -1.7324 C   0  0  0  0  0  0  0  0  0  0  0  0
    1.0734    0.9626   -0.6222 C   0  0  0  0  0  0  0  0  0  0  0  0
    5.7522   -0.7874    2.7328 H   0  0  0  0  0  0  0  0  0  0  0  0
    4.0507   -0.3311    2.9595 H   0  0  0  0  0  0  0  0  0  0  0  0
    4.4630   -1.8171    2.1212 H   0  0  0  0  0  0  0  0  0  0  0  0
    6.7392   -0.6694    0.2169 H   0  0  0  0  0  0  0  0  0  0  0  0
    5.6230   -0.1476   -1.0659 H   0  0  0  0  0  0  0  0  0  0  0  0
    5.4052   -1.7067   -0.2882 H   0  0  0  0  0  0  0  0  0  0  0  0
    6.3397    1.3965    1.6099 H   0  0  0  0  0  0  0  0  0  0  0  0
    4.6794    1.9410    1.9303 H   0  0  0  0  0  0  0  0  0  0  0  0
    5.3158    2.0176    0.2984 H   0  0  0  0  0  0  0  0  0  0  0  0
    0.6553   -1.7637   -1.7979 H   0  0  0  0  0  0  0  0  0  0  0  0
    0.5292   -2.3080   -0.1206 H   0  0  0  0  0  0  0  0  0  0  0  0
   -1.7010   -1.6508   -0.9601 H   0  0  0  0  0  0  0  0  0  0  0  0
   -1.1762   -0.6025    0.3637 H   0  0  0  0  0  0  0  0  0  0  0  0
   -2.1000    1.5182   -0.0499 H   0  0  0  0  0  0  0  0  0  0  0  0
   -2.4402    2.0337   -1.6957 H   0  0  0  0  0  0  0  0  0  0  0  0
   -3.5302   -0.1541   -3.1668 H   0  0  0  0  0  0  0  0  0  0  0  0
   -5.7383   -1.2671   -3.2135 H   0  0  0  0  0  0  0  0  0  0  0  0
   -7.1763   -1.3116   -1.1682 H   0  0  0  0  0  0  0  0  0  0  0  0
   -5.1295   -0.0582    2.8143 H   0  0  0  0  0  0  0  0  0  0  0  0
   -5.9029    1.4819    2.3591 H   0  0  0  0  0  0  0  0  0  0  0  0
    0.4728    0.7813   -2.6719 H   0  0  0  0  0  0  0  0  0  0  0  0
   -0.2052    2.1789   -1.8831 H   0  0  0  0  0  0  0  0  0  0  0  0
    1.9637    1.5454   -0.8812 H   0  0  0  0  0  0  0  0  0  0  0  0
    0.6878    1.3462    0.3295 H   0  0  0  0  0  0  0  0  0  0  0  0
  1  2  1  0
  2  3  1  0
  2  4  1  0
  2  5  1  0
  5  6  1  0
  6  7  2  0
  6  8  1  0
  8  9  1  0
  9 10  1  0
 10 11  1  0
 11 12  1  0
 12 13  1  0
 13 14  2  0
 14 15  1  0
 15 16  2  0
 16 17  1  0
 17 18  1  0
 18 19  1  0
 19 20  1  0
 20 21  1  0
 11 22  1  0
 22 23  1  0
 23  8  1  0
 21 13  1  0
 21 17  2  0
  1 24  1  0
  1 25  1  0
  1 26  1  0
  3 27  1  0
  3 28  1  0
  3 29  1  0
  4 30  1  0
  4 31  1  0
  4 32  1  0
  9 33  1  0
  9 34  1  0
 10 35  1  0
 10 36  1  0
 12 37  1  0
 12 38  1  0
 14 39  1  0
 15 40  1  0
 16 41  1  0
 19 42  1  0
 19 43  1  0
 22 44  1  0
 22 45  1  0
 23 46  1  0
 23 47  1  0
M  END
>  <Unnamed: 0>  (112) 
617

>  <ID>  (112) 
TRAIN_0617

>  <Canonical_Smiles>  (112) 
CC(C)(C)OC(=O)N1CCN(Cc2cccc3OCOc23)CC1

>  <Inhibition>  (112) 
45.6

>  <TDC_conf_true_inhibitor>  (112) 
0

>  <TDC_conf_non_inhibitor>  (112) 
1

>  <split>  (112) 
1

$$$$
112
     RDKit          3D

 41 44  0  0  0  0  0  0  0  0999 V2000
    5.3126   -0.3701   -0.3175 C   0  0  0  0  0  0  0  0  0  0  0  0
    4.5118    0.8463   -0.1912 N   0  0  0  0  0  0  0  0  0  0  0  0
    3.4282    0.8939   -1.1953 C   0  0  0  0  0  0  0  0  0  0  0  0
    2.2426   -0.0654   -0.9390 C   0  0  0  0  0  0  0  0  0  0  0  0
    1.6922    0.1242    0.4243 N   0  0  0  0  0  0  0  0  0  0  0  0
    2.7487    0.0089    1.4602 C   0  0  0  0  0  0  0  0  0  0  0  0
    3.9213    0.9710    1.1599 C   0  0  0  0  0  0  0  0  0  0  0  0
    0.5111   -0.5168    0.6918 C   0  0  0  0  0  0  0  0  0  0  0  0
    0.3838   -1.5541    1.5425 N   0  0  0  0  0  0  0  0  0  0  0  0
   -1.1358   -1.9085    1.4387 S   0  0  0  0  0  6  0  0  0  0  0  0
   -1.2382   -3.3742    0.7641 O   0  0  0  0  0  0  0  0  0  0  0  0
   -1.8162   -2.1544    2.8718 O   0  0  0  0  0  0  0  0  0  0  0  0
   -1.8462   -0.8300    0.4958 C   0  0  0  0  0  0  0  0  0  0  0  0
   -0.7601   -0.0454    0.0817 C   0  0  0  0  0  0  0  0  0  0  0  0
   -0.9985    1.1099   -0.8413 C   0  0  0  0  0  0  0  0  0  0  0  0
   -2.4135    1.6994   -0.6505 C   0  0  0  0  0  0  0  0  0  0  0  0
   -3.5112    0.6554   -0.4847 C   0  0  0  0  0  0  0  0  0  0  0  0
   -4.8257    0.9575   -0.8610 C   0  0  0  0  0  0  0  0  0  0  0  0
   -5.8454    0.0302   -0.6474 C   0  0  0  0  0  0  0  0  0  0  0  0
   -5.5647   -1.1965   -0.0462 C   0  0  0  0  0  0  0  0  0  0  0  0
   -4.2616   -1.5069    0.3473 C   0  0  0  0  0  0  0  0  0  0  0  0
   -3.2291   -0.5879    0.1358 C   0  0  0  0  0  0  0  0  0  0  0  0
    6.1335   -0.3616    0.4083 H   0  0  0  0  0  0  0  0  0  0  0  0
    4.7364   -1.2885   -0.1676 H   0  0  0  0  0  0  0  0  0  0  0  0
    5.7759   -0.4181   -1.3093 H   0  0  0  0  0  0  0  0  0  0  0  0
    3.8363    0.7133   -2.1974 H   0  0  0  0  0  0  0  0  0  0  0  0
    3.0406    1.9214   -1.2152 H   0  0  0  0  0  0  0  0  0  0  0  0
    1.4791    0.1316   -1.6994 H   0  0  0  0  0  0  0  0  0  0  0  0
    2.5632   -1.1071   -1.0673 H   0  0  0  0  0  0  0  0  0  0  0  0
    3.1151   -1.0239    1.5178 H   0  0  0  0  0  0  0  0  0  0  0  0
    2.3362    0.2727    2.4424 H   0  0  0  0  0  0  0  0  0  0  0  0
    4.7000    0.8511    1.9231 H   0  0  0  0  0  0  0  0  0  0  0  0
    3.5580    2.0018    1.2676 H   0  0  0  0  0  0  0  0  0  0  0  0
   -0.2531    1.8982   -0.6911 H   0  0  0  0  0  0  0  0  0  0  0  0
   -0.8968    0.7502   -1.8731 H   0  0  0  0  0  0  0  0  0  0  0  0
   -2.6379    2.3504   -1.5039 H   0  0  0  0  0  0  0  0  0  0  0  0
   -2.4236    2.3268    0.2505 H   0  0  0  0  0  0  0  0  0  0  0  0
   -5.0651    1.9163   -1.3152 H   0  0  0  0  0  0  0  0  0  0  0  0
   -6.8648    0.2664   -0.9435 H   0  0  0  0  0  0  0  0  0  0  0  0
   -6.3644   -1.9146    0.1204 H   0  0  0  0  0  0  0  0  0  0  0  0
   -4.0742   -2.4728    0.8129 H   0  0  0  0  0  0  0  0  0  0  0  0
  1  2  1  0
  2  3  1  0
  3  4  1  0
  4  5  1  0
  5  6  1  0
  6  7  1  0
  5  8  1  0
  8  9  2  0
  9 10  1  0
 10 11  2  0
 10 12  2  0
 10 13  1  0
 13 14  2  0
 14 15  1  0
 15 16  1  0
 16 17  1  0
 17 18  2  0
 18 19  1  0
 19 20  2  0
 20 21  1  0
 21 22  2  0
  7  2  1  0
 14  8  1  0
 22 13  1  0
 22 17  1  0
  1 23  1  0
  1 24  1  0
  1 25  1  0
  3 26  1  0
  3 27  1  0
  4 28  1  0
  4 29  1  0
  6 30  1  0
  6 31  1  0
  7 32  1  0
  7 33  1  0
 15 34  1  0
 15 35  1  0
 16 36  1  0
 16 37  1  0
 18 38  1  0
 19 39  1  0
 20 40  1  0
 21 41  1  0
M  END
>  <Unnamed: 0>  (113) 
618

>  <ID>  (113) 
TRAIN_0618

>  <Canonical_Smiles>  (113) 
CN1CCN(CC1)C2=NS(=O)(=O)C3=C2CCc4ccccc34

>  <Inhibition>  (113) 
23.2

>  <TDC_conf_true_inhibitor>  (113) 
0

>  <TDC_conf_non_inhibitor>  (113) 
1

>  <split>  (113) 
1

$$$$
113
     RDKit          3D

 32 33  0  0  0  0  0  0  0  0999 V2000
    5.7974    0.8797    0.1349 C   0  0  0  0  0  0  0  0  0  0  0  0
    4.8603    0.2141   -0.7140 O   0  0  0  0  0  0  0  0  0  0  0  0
    3.5844    0.2073   -0.2329 C   0  0  0  0  0  0  0  0  0  0  0  0
    3.2354    0.6852    0.8371 O   0  0  0  0  0  0  0  0  0  0  0  0
    2.6812   -0.5180   -1.2047 C   0  0  0  0  0  0  0  0  0  0  0  0
    1.2202   -0.3159   -0.9121 C   0  0  0  0  0  0  0  0  0  0  0  0
    0.4568   -1.2150   -0.1853 C   0  0  0  0  0  0  0  0  0  0  0  0
    1.0253   -2.4881    0.3714 C   0  0  0  0  0  0  0  0  0  0  0  0
   -0.8543   -1.0096    0.0693 N   0  0  0  0  0  0  0  0  0  0  0  0
   -1.4218    0.1270   -0.3777 C   0  0  0  0  0  0  0  0  0  0  0  0
   -0.7644    1.0671   -1.0654 N   0  0  0  0  0  0  0  0  0  0  0  0
    0.5337    0.8215   -1.2997 C   0  0  0  0  0  0  0  0  0  0  0  0
    1.2869    2.1027   -2.1751 Cl  0  0  0  0  0  0  0  0  0  0  0  0
   -2.8550    0.3455   -0.0952 C   0  0  0  0  0  0  0  0  0  0  0  0
   -3.6169   -0.5986    0.6212 C   0  0  0  0  0  0  0  0  0  0  0  0
   -4.9746   -0.3938    0.8891 C   0  0  0  0  0  0  0  0  0  0  0  0
   -5.6051    0.7645    0.4455 C   0  0  0  0  0  0  0  0  0  0  0  0
   -4.8799    1.7164   -0.2642 C   0  0  0  0  0  0  0  0  0  0  0  0
   -3.5223    1.5078   -0.5300 C   0  0  0  0  0  0  0  0  0  0  0  0
    5.5155    1.9287    0.2696 H   0  0  0  0  0  0  0  0  0  0  0  0
    5.8684    0.3689    1.1003 H   0  0  0  0  0  0  0  0  0  0  0  0
    6.7773    0.8439   -0.3489 H   0  0  0  0  0  0  0  0  0  0  0  0
    2.9025   -0.1789   -2.2235 H   0  0  0  0  0  0  0  0  0  0  0  0
    2.9428   -1.5811   -1.1773 H   0  0  0  0  0  0  0  0  0  0  0  0
    1.8864   -2.2768    1.0130 H   0  0  0  0  0  0  0  0  0  0  0  0
    0.2806   -3.0138    0.9787 H   0  0  0  0  0  0  0  0  0  0  0  0
    1.3273   -3.1571   -0.4402 H   0  0  0  0  0  0  0  0  0  0  0  0
   -3.1487   -1.5136    0.9816 H   0  0  0  0  0  0  0  0  0  0  0  0
   -5.5350   -1.1408    1.4451 H   0  0  0  0  0  0  0  0  0  0  0  0
   -6.6594    0.9256    0.6534 H   0  0  0  0  0  0  0  0  0  0  0  0
   -5.3657    2.6241   -0.6126 H   0  0  0  0  0  0  0  0  0  0  0  0
   -2.9793    2.2708   -1.0865 H   0  0  0  0  0  0  0  0  0  0  0  0
  1  2  1  0
  2  3  1  0
  3  4  2  0
  3  5  1  0
  5  6  1  0
  6  7  2  0
  7  8  1  0
  7  9  1  0
  9 10  2  0
 10 11  1  0
 11 12  2  0
 12 13  1  0
 10 14  1  0
 14 15  2  0
 15 16  1  0
 16 17  2  0
 17 18  1  0
 18 19  2  0
 12  6  1  0
 19 14  1  0
  1 20  1  0
  1 21  1  0
  1 22  1  0
  5 23  1  0
  5 24  1  0
  8 25  1  0
  8 26  1  0
  8 27  1  0
 15 28  1  0
 16 29  1  0
 17 30  1  0
 18 31  1  0
 19 32  1  0
M  END
>  <Unnamed: 0>  (114) 
620

>  <ID>  (114) 
TRAIN_0620

>  <Canonical_Smiles>  (114) 
COC(=O)Cc1c(C)nc(nc1Cl)c2ccccc2

>  <Inhibition>  (114) 
0.0

>  <TDC_conf_true_inhibitor>  (114) 
0

>  <TDC_conf_non_inhibitor>  (114) 
1

>  <split>  (114) 
1

$$$$
114
     RDKit          3D

 45 46  0  0  0  0  0  0  0  0999 V2000
   -7.2930   -1.3689    0.5153 C   0  0  0  0  0  0  0  0  0  0  0  0
   -6.0428   -1.5979    1.3434 C   0  0  0  0  0  0  0  0  0  0  0  0
   -5.0233   -0.6603    0.9664 O   0  0  0  0  0  0  0  0  0  0  0  0
   -5.0511    0.5282    1.6116 C   0  0  0  0  0  0  0  0  0  0  0  0
   -5.8743    0.9078    2.4263 O   0  0  0  0  0  0  0  0  0  0  0  0
   -3.9840    1.3889    1.0923 C   0  0  0  0  0  0  0  0  0  0  0  0
   -4.3621    2.6414    0.6350 C   0  0  0  0  0  0  0  0  0  0  0  0
   -3.5004    3.5349    0.1007 N   0  0  0  0  0  0  0  0  0  0  0  0
   -2.2135    3.1577    0.0507 C   0  0  0  0  0  0  0  0  0  0  0  0
   -1.4155    4.0928   -0.5190 O   0  0  0  0  0  0  0  0  0  0  0  0
   -1.6982    1.9532    0.5091 C   0  0  0  0  0  0  0  0  0  0  0  0
   -0.2242    1.6614    0.3921 C   0  0  0  0  0  0  0  0  0  0  0  0
    0.1119    0.9178   -0.9018 C   0  0  0  0  0  0  0  0  0  0  0  0
    1.5013    0.5958   -0.9653 O   0  0  0  0  0  0  0  0  0  0  0  0
    1.8175   -0.6330   -0.3087 C   0  0  0  0  0  0  0  0  0  0  0  0
    3.3000   -0.9010   -0.3939 C   0  0  0  0  0  0  0  0  0  0  0  0
    4.0258   -0.6075   -1.5565 C   0  0  0  0  0  0  0  0  0  0  0  0
    5.3931   -0.8950   -1.6439 C   0  0  0  0  0  0  0  0  0  0  0  0
    6.0535   -1.4912   -0.5709 C   0  0  0  0  0  0  0  0  0  0  0  0
    7.3789   -1.8256   -0.5254 O   0  0  0  0  0  0  0  0  0  0  0  0
    8.1573   -1.5164   -1.6745 C   0  0  0  0  0  0  0  0  0  0  0  0
    5.3334   -1.7980    0.5851 C   0  0  0  0  0  0  0  0  0  0  0  0
    3.9685   -1.5111    0.6746 C   0  0  0  0  0  0  0  0  0  0  0  0
   -2.6291    1.0446    1.0418 C   0  0  0  0  0  0  0  0  0  0  0  0
   -2.0808   -0.4776    1.6706 Cl  0  0  0  0  0  0  0  0  0  0  0  0
   -8.0575   -2.1143    0.7520 H   0  0  0  0  0  0  0  0  0  0  0  0
   -7.7076   -0.3725    0.6983 H   0  0  0  0  0  0  0  0  0  0  0  0
   -7.0621   -1.4265   -0.5534 H   0  0  0  0  0  0  0  0  0  0  0  0
   -6.2574   -1.5409    2.4167 H   0  0  0  0  0  0  0  0  0  0  0  0
   -5.6464   -2.5992    1.1459 H   0  0  0  0  0  0  0  0  0  0  0  0
   -5.3988    2.9693    0.6752 H   0  0  0  0  0  0  0  0  0  0  0  0
   -2.0674    4.7938   -0.7038 H   0  0  0  0  0  0  0  0  0  0  0  0
    0.3589    2.5906    0.4346 H   0  0  0  0  0  0  0  0  0  0  0  0
    0.1258    1.1084    1.2704 H   0  0  0  0  0  0  0  0  0  0  0  0
   -0.4954    0.0139   -1.0317 H   0  0  0  0  0  0  0  0  0  0  0  0
   -0.1032    1.5665   -1.7588 H   0  0  0  0  0  0  0  0  0  0  0  0
    1.5109   -0.5751    0.7409 H   0  0  0  0  0  0  0  0  0  0  0  0
    1.2826   -1.4585   -0.7921 H   0  0  0  0  0  0  0  0  0  0  0  0
    3.5256   -0.1425   -2.4044 H   0  0  0  0  0  0  0  0  0  0  0  0
    5.9072   -0.6400   -2.5641 H   0  0  0  0  0  0  0  0  0  0  0  0
    8.1723   -0.4379   -1.8639 H   0  0  0  0  0  0  0  0  0  0  0  0
    9.1857   -1.8338   -1.4768 H   0  0  0  0  0  0  0  0  0  0  0  0
    7.8019   -2.0671   -2.5517 H   0  0  0  0  0  0  0  0  0  0  0  0
    5.8407   -2.2667    1.4248 H   0  0  0  0  0  0  0  0  0  0  0  0
    3.4353   -1.7674    1.5871 H   0  0  0  0  0  0  0  0  0  0  0  0
  1  2  1  0
  2  3  1  0
  3  4  1  0
  4  5  2  0
  4  6  1  0
  6  7  2  0
  7  8  1  0
  8  9  2  0
  9 10  1  0
  9 11  1  0
 11 12  1  0
 12 13  1  0
 13 14  1  0
 14 15  1  0
 15 16  1  0
 16 17  2  0
 17 18  1  0
 18 19  2  0
 19 20  1  0
 20 21  1  0
 19 22  1  0
 22 23  2  0
 11 24  2  0
 24 25  1  0
 24  6  1  0
 23 16  1  0
  1 26  1  0
  1 27  1  0
  1 28  1  0
  2 29  1  0
  2 30  1  0
  7 31  1  0
 10 32  1  0
 12 33  1  0
 12 34  1  0
 13 35  1  0
 13 36  1  0
 15 37  1  0
 15 38  1  0
 17 39  1  0
 18 40  1  0
 21 41  1  0
 21 42  1  0
 21 43  1  0
 22 44  1  0
 23 45  1  0
M  END
>  <Unnamed: 0>  (115) 
625

>  <ID>  (115) 
TRAIN_0625

>  <Canonical_Smiles>  (115) 
CCOC(=O)c1cnc(O)c(CCOCc2ccc(OC)cc2)c1Cl

>  <Inhibition>  (115) 
34.8

>  <TDC_conf_true_inhibitor>  (115) 
1

>  <TDC_conf_non_inhibitor>  (115) 
0

>  <split>  (115) 
1

$$$$
115
     RDKit          3D

 37 40  0  0  0  0  0  0  0  0999 V2000
    5.8399    1.3504   -2.2559 C   0  0  0  0  0  0  0  0  0  0  0  0
    5.7892    0.2125   -1.4045 O   0  0  0  0  0  0  0  0  0  0  0  0
    4.5671   -0.1307   -0.8991 C   0  0  0  0  0  0  0  0  0  0  0  0
    3.3631    0.5291   -1.1386 C   0  0  0  0  0  0  0  0  0  0  0  0
    2.1707    0.0709   -0.5543 C   0  0  0  0  0  0  0  0  0  0  0  0
    2.1554   -1.0554    0.2811 C   0  0  0  0  0  0  0  0  0  0  0  0
    0.9326   -1.5867    0.9257 C   0  0  0  0  0  0  0  0  0  0  0  0
    1.0800   -2.6759    1.7002 C   0  0  0  0  0  0  0  0  0  0  0  0
    2.3606   -3.3592    1.9413 C   0  0  0  0  0  0  0  0  0  0  0  0
    2.4150   -4.3492    2.6617 O   0  0  0  0  0  0  0  0  0  0  0  0
    3.4762   -2.8329    1.3225 O   0  0  0  0  0  0  0  0  0  0  0  0
    3.3754   -1.6953    0.5026 C   0  0  0  0  0  0  0  0  0  0  0  0
    4.5684   -1.2505   -0.0718 C   0  0  0  0  0  0  0  0  0  0  0  0
   -0.3720   -0.8590    0.6567 C   0  0  0  0  0  0  0  0  0  0  0  0
   -1.8433   -1.5422    1.4649 S   0  0  0  0  0  0  0  0  0  0  0  0
   -3.0542   -0.4304    0.8924 C   0  0  0  0  0  0  0  0  0  0  0  0
   -4.3714   -0.5528    1.2536 O   0  0  0  0  0  0  0  0  0  0  0  0
   -4.9886    0.4810    0.6164 C   0  0  0  0  0  0  0  0  0  0  0  0
   -6.3379    0.8092    0.6513 C   0  0  0  0  0  0  0  0  0  0  0  0
   -6.7077    1.9306   -0.1014 C   0  0  0  0  0  0  0  0  0  0  0  0
   -5.7634    2.6610   -0.8352 C   0  0  0  0  0  0  0  0  0  0  0  0
   -4.4085    2.2946   -0.8429 C   0  0  0  0  0  0  0  0  0  0  0  0
   -4.0245    1.1748   -0.0944 C   0  0  0  0  0  0  0  0  0  0  0  0
   -2.7989    0.5862    0.0887 N   0  0  0  0  0  0  0  0  0  0  0  0
    6.8790    1.4866   -2.5706 H   0  0  0  0  0  0  0  0  0  0  0  0
    5.5318    2.2560   -1.7229 H   0  0  0  0  0  0  0  0  0  0  0  0
    5.2363    1.1966   -3.1565 H   0  0  0  0  0  0  0  0  0  0  0  0
    3.3112    1.4063   -1.7761 H   0  0  0  0  0  0  0  0  0  0  0  0
    1.2627    0.6259   -0.7774 H   0  0  0  0  0  0  0  0  0  0  0  0
    0.2535   -3.1475    2.2189 H   0  0  0  0  0  0  0  0  0  0  0  0
    5.4973   -1.7785    0.1270 H   0  0  0  0  0  0  0  0  0  0  0  0
   -0.5606   -0.8650   -0.4233 H   0  0  0  0  0  0  0  0  0  0  0  0
   -0.2692    0.1801    0.9908 H   0  0  0  0  0  0  0  0  0  0  0  0
   -7.0526    0.2322    1.2245 H   0  0  0  0  0  0  0  0  0  0  0  0
   -7.7514    2.2408   -0.1161 H   0  0  0  0  0  0  0  0  0  0  0  0
   -6.0848    3.5279   -1.4097 H   0  0  0  0  0  0  0  0  0  0  0  0
   -3.6767    2.8587   -1.4102 H   0  0  0  0  0  0  0  0  0  0  0  0
  1  2  1  0
  2  3  1  0
  3  4  2  0
  4  5  1  0
  5  6  2  0
  6  7  1  0
  7  8  2  0
  8  9  1  0
  9 10  2  0
  9 11  1  0
 11 12  1  0
 12 13  2  0
  7 14  1  0
 14 15  1  0
 15 16  1  0
 16 17  1  0
 17 18  1  0
 18 19  2  0
 19 20  1  0
 20 21  2  0
 21 22  1  0
 22 23  2  0
 23 24  1  0
 13  3  1  0
 12  6  1  0
 24 16  2  0
 23 18  1  0
  1 25  1  0
  1 26  1  0
  1 27  1  0
  4 28  1  0
  5 29  1  0
  8 30  1  0
 13 31  1  0
 14 32  1  0
 14 33  1  0
 19 34  1  0
 20 35  1  0
 21 36  1  0
 22 37  1  0
M  END
>  <Unnamed: 0>  (116) 
636

>  <ID>  (116) 
TRAIN_0636

>  <Canonical_Smiles>  (116) 
COc1ccc2C(=CC(=O)Oc2c1)CSc3oc4ccccc4n3

>  <Inhibition>  (116) 
63.9

>  <TDC_conf_true_inhibitor>  (116) 
1

>  <TDC_conf_non_inhibitor>  (116) 
0

>  <split>  (116) 
1

$$$$
116
     RDKit          3D

 52 53  0  0  0  0  0  0  0  0999 V2000
    9.1096   -0.3440   -2.6003 C   0  0  0  0  0  0  0  0  0  0  0  0
    8.6800    0.3365   -1.4196 O   0  0  0  0  0  0  0  0  0  0  0  0
    7.8291   -0.3887   -0.6398 C   0  0  0  0  0  0  0  0  0  0  0  0
    7.4758   -1.5415   -0.8614 O   0  0  0  0  0  0  0  0  0  0  0  0
    7.4347    0.4086    0.5971 C   0  0  0  0  0  0  0  0  0  0  0  0
    6.2371   -0.1628    1.1992 N   0  0  0  0  0  0  0  0  0  0  0  0
    4.9889    0.2991    0.8346 C   0  0  0  0  0  0  0  0  0  0  0  0
    4.8226    1.3029    0.1423 O   0  0  0  0  0  0  0  0  0  0  0  0
    3.8094   -0.5256    1.3835 C   0  0  0  0  0  0  0  0  0  0  0  0
    3.7183   -0.3869    2.8982 C   0  0  0  0  0  0  0  0  0  0  0  0
    2.5937   -0.0575    0.7320 N   0  0  0  0  0  0  0  0  0  0  0  0
    1.4730   -0.8371    0.6480 C   0  0  0  0  0  0  0  0  0  0  0  0
    1.3671   -1.9415    1.1647 O   0  0  0  0  0  0  0  0  0  0  0  0
    0.3904   -0.2117   -0.1491 C   0  0  0  0  0  0  0  0  0  0  0  0
   -0.7340   -0.9016   -0.3937 C   0  0  0  0  0  0  0  0  0  0  0  0
   -1.8563   -0.3558   -1.1704 C   0  0  0  0  0  0  0  0  0  0  0  0
   -3.0925   -0.2286   -0.5046 C   0  0  0  0  0  0  0  0  0  0  0  0
   -4.2378    0.2647   -1.1529 C   0  0  0  0  0  0  0  0  0  0  0  0
   -5.4703    0.3877   -0.4692 N   0  0  0  0  0  0  0  0  0  0  0  0
   -6.5970    0.8338   -1.1221 N   0  0  0  0  0  0  0  0  0  0  0  0
   -7.5340    0.7832   -0.2247 C   0  0  0  0  0  0  0  0  0  0  0  0
   -8.9517    1.1518   -0.5145 C   0  0  0  0  0  0  0  0  0  0  0  0
   -7.1288    0.3777    0.9833 N   0  0  0  0  0  0  0  0  0  0  0  0
   -7.9058    0.0624    2.1305 C   0  0  0  0  0  0  0  0  0  0  0  0
   -7.3035    0.4895    3.2648 F   0  0  0  0  0  0  0  0  0  0  0  0
   -8.0736   -1.2777    2.2301 F   0  0  0  0  0  0  0  0  0  0  0  0
   -5.8033    0.0533    0.8613 C   0  0  0  0  0  0  0  0  0  0  0  0
   -5.0962   -0.4363    1.7272 O   0  0  0  0  0  0  0  0  0  0  0  0
   -4.1059    0.6306   -2.5016 C   0  0  0  0  0  0  0  0  0  0  0  0
   -5.1407    1.1183   -3.2030 F   0  0  0  0  0  0  0  0  0  0  0  0
   -2.8947    0.5041   -3.1819 C   0  0  0  0  0  0  0  0  0  0  0  0
   -1.7730    0.0079   -2.5229 C   0  0  0  0  0  0  0  0  0  0  0  0
   -0.3180   -0.1574   -3.4424 Cl  0  0  0  0  0  0  0  0  0  0  0  0
    9.7187   -1.2136   -2.3356 H   0  0  0  0  0  0  0  0  0  0  0  0
    9.7273    0.3456   -3.1844 H   0  0  0  0  0  0  0  0  0  0  0  0
    8.2510   -0.6422   -3.2083 H   0  0  0  0  0  0  0  0  0  0  0  0
    7.2599    1.4525    0.3256 H   0  0  0  0  0  0  0  0  0  0  0  0
    8.2434    0.3379    1.3304 H   0  0  0  0  0  0  0  0  0  0  0  0
    6.2998   -1.1408    1.4597 H   0  0  0  0  0  0  0  0  0  0  0  0
    3.9633   -1.5758    1.1089 H   0  0  0  0  0  0  0  0  0  0  0  0
    3.6051    0.6628    3.1896 H   0  0  0  0  0  0  0  0  0  0  0  0
    4.6202   -0.7704    3.3866 H   0  0  0  0  0  0  0  0  0  0  0  0
    2.8607   -0.9355    3.2988 H   0  0  0  0  0  0  0  0  0  0  0  0
    2.6670    0.8170    0.2196 H   0  0  0  0  0  0  0  0  0  0  0  0
    0.5410    0.7942   -0.5195 H   0  0  0  0  0  0  0  0  0  0  0  0
   -0.8719   -1.9055    0.0049 H   0  0  0  0  0  0  0  0  0  0  0  0
   -3.1357   -0.5235    0.5424 H   0  0  0  0  0  0  0  0  0  0  0  0
   -9.5930    0.2757   -0.3801 H   0  0  0  0  0  0  0  0  0  0  0  0
   -9.2768    1.9422    0.1678 H   0  0  0  0  0  0  0  0  0  0  0  0
   -9.0481    1.5082   -1.5438 H   0  0  0  0  0  0  0  0  0  0  0  0
   -8.8955    0.5215    2.0768 H   0  0  0  0  0  0  0  0  0  0  0  0
   -2.8491    0.7924   -4.2280 H   0  0  0  0  0  0  0  0  0  0  0  0
  1  2  1  0
  2  3  1  0
  3  4  2  0
  3  5  1  0
  5  6  1  0
  6  7  1  0
  7  8  2  0
  7  9  1  0
  9 10  1  0
  9 11  1  0
 11 12  1  0
 12 13  2  0
 12 14  1  0
 14 15  2  0
 15 16  1  0
 16 17  2  0
 17 18  1  0
 18 19  1  0
 19 20  1  0
 20 21  2  0
 21 22  1  0
 21 23  1  0
 23 24  1  0
 24 25  1  0
 24 26  1  0
 23 27  1  0
 27 28  2  0
 18 29  2  0
 29 30  1  0
 29 31  1  0
 31 32  2  0
 32 33  1  0
 32 16  1  0
 27 19  1  0
  1 34  1  0
  1 35  1  0
  1 36  1  0
  5 37  1  0
  5 38  1  0
  6 39  1  0
  9 40  1  0
 10 41  1  0
 10 42  1  0
 10 43  1  0
 11 44  1  0
 14 45  1  0
 15 46  1  0
 17 47  1  0
 22 48  1  0
 22 49  1  0
 22 50  1  0
 24 51  1  0
 31 52  1  0
M  END
>  <Unnamed: 0>  (117) 
638

>  <ID>  (117) 
TRAIN_0638

>  <Canonical_Smiles>  (117) 
COC(=O)CNC(=O)C(C)NC(=O)\C=C\c1cc(N2N=C(C)N(C(F)F)C2=O)c(F)cc1Cl

>  <Inhibition>  (117) 
33.2

>  <TDC_conf_true_inhibitor>  (117) 
0

>  <TDC_conf_non_inhibitor>  (117) 
1

>  <split>  (117) 
1

$$$$
117
     RDKit          3D

 49 51  0  0  0  0  0  0  0  0999 V2000
   -4.4373    0.7917    2.1556 C   0  0  0  0  0  0  0  0  0  0  0  0
   -3.3661    1.2442    1.1511 C   0  0  0  0  0  0  0  0  0  0  0  0
   -4.0444    2.0729    0.0549 C   0  0  0  0  0  0  0  0  0  0  0  0
   -2.2998    2.0477    1.9044 C   0  0  0  0  0  0  0  0  0  0  0  0
   -2.8213    0.0093    0.6188 O   0  0  0  0  0  0  0  0  0  0  0  0
   -1.8178    0.0220   -0.3036 C   0  0  0  0  0  0  0  0  0  0  0  0
   -1.3335    1.0489   -0.7554 O   0  0  0  0  0  0  0  0  0  0  0  0
   -1.4631   -1.2612   -0.6605 N   0  0  0  0  0  0  0  0  0  0  0  0
   -2.2705   -2.4368   -0.3151 C   0  0  0  0  0  0  0  0  0  0  0  0
   -1.8488   -3.5618   -1.2588 C   0  0  0  0  0  0  0  0  0  0  0  0
   -0.5946   -3.0050   -1.8568 C   0  0  0  0  0  0  0  0  0  0  0  0
    0.2605   -3.6725   -2.7253 C   0  0  0  0  0  0  0  0  0  0  0  0
    1.3642   -2.9889   -3.2270 C   0  0  0  0  0  0  0  0  0  0  0  0
    1.6088   -1.6662   -2.8361 C   0  0  0  0  0  0  0  0  0  0  0  0
    0.7459   -1.0006   -1.9437 C   0  0  0  0  0  0  0  0  0  0  0  0
    1.2037    0.3238   -1.4922 C   0  0  0  0  0  0  0  0  0  0  0  0
    1.5900    1.1985   -2.2507 O   0  0  0  0  0  0  0  0  0  0  0  0
    1.2616    0.3159   -0.1383 O   0  0  0  0  0  0  0  0  0  0  0  0
    1.7149    1.5357    0.4542 C   0  0  0  0  0  0  0  0  0  0  0  0
    3.1666    1.3979    0.8338 C   0  0  0  0  0  0  0  0  0  0  0  0
    4.1710    1.8594   -0.0280 C   0  0  0  0  0  0  0  0  0  0  0  0
    5.5167    1.7159    0.3127 C   0  0  0  0  0  0  0  0  0  0  0  0
    5.8710    1.1030    1.5133 C   0  0  0  0  0  0  0  0  0  0  0  0
    4.8807    0.6279    2.3715 C   0  0  0  0  0  0  0  0  0  0  0  0
    3.5343    0.7702    2.0320 C   0  0  0  0  0  0  0  0  0  0  0  0
   -0.3887   -1.6665   -1.4847 C   0  0  0  0  0  0  0  0  0  0  0  0
   -4.9328    1.6430    2.6340 H   0  0  0  0  0  0  0  0  0  0  0  0
   -3.9965    0.1631    2.9383 H   0  0  0  0  0  0  0  0  0  0  0  0
   -5.2008    0.1794    1.6616 H   0  0  0  0  0  0  0  0  0  0  0  0
   -4.7373    1.4547   -0.5268 H   0  0  0  0  0  0  0  0  0  0  0  0
   -3.3208    2.4851   -0.6547 H   0  0  0  0  0  0  0  0  0  0  0  0
   -4.6012    2.9152    0.4796 H   0  0  0  0  0  0  0  0  0  0  0  0
   -1.7602    1.4094    2.6129 H   0  0  0  0  0  0  0  0  0  0  0  0
   -2.7461    2.8821    2.4563 H   0  0  0  0  0  0  0  0  0  0  0  0
   -1.5502    2.4695    1.2283 H   0  0  0  0  0  0  0  0  0  0  0  0
   -2.0568   -2.6923    0.7299 H   0  0  0  0  0  0  0  0  0  0  0  0
   -3.3405   -2.2179   -0.4018 H   0  0  0  0  0  0  0  0  0  0  0  0
   -2.5999   -3.7189   -2.0399 H   0  0  0  0  0  0  0  0  0  0  0  0
   -1.6759   -4.4968   -0.7183 H   0  0  0  0  0  0  0  0  0  0  0  0
    0.0704   -4.7008   -3.0186 H   0  0  0  0  0  0  0  0  0  0  0  0
    2.0482   -3.4846   -3.9120 H   0  0  0  0  0  0  0  0  0  0  0  0
    2.4963   -1.1569   -3.2102 H   0  0  0  0  0  0  0  0  0  0  0  0
    1.1139    1.7066    1.3551 H   0  0  0  0  0  0  0  0  0  0  0  0
    1.5473    2.4101   -0.1871 H   0  0  0  0  0  0  0  0  0  0  0  0
    3.9052    2.3276   -0.9746 H   0  0  0  0  0  0  0  0  0  0  0  0
    6.2873    2.0790   -0.3621 H   0  0  0  0  0  0  0  0  0  0  0  0
    6.9192    0.9904    1.7768 H   0  0  0  0  0  0  0  0  0  0  0  0
    5.1570    0.1423    3.3036 H   0  0  0  0  0  0  0  0  0  0  0  0
    2.7706    0.3852    2.7038 H   0  0  0  0  0  0  0  0  0  0  0  0
  1  2  1  0
  2  3  1  0
  2  4  1  0
  2  5  1  0
  5  6  1  0
  6  7  2  0
  6  8  1  0
  8  9  1  0
  9 10  1  0
 10 11  1  0
 11 12  2  0
 12 13  1  0
 13 14  2  0
 14 15  1  0
 15 16  1  0
 16 17  2  0
 16 18  1  0
 18 19  1  0
 19 20  1  0
 20 21  2  0
 21 22  1  0
 22 23  2  0
 23 24  1  0
 24 25  2  0
 15 26  2  0
 26  8  1  0
 26 11  1  0
 25 20  1  0
  1 27  1  0
  1 28  1  0
  1 29  1  0
  3 30  1  0
  3 31  1  0
  3 32  1  0
  4 33  1  0
  4 34  1  0
  4 35  1  0
  9 36  1  0
  9 37  1  0
 10 38  1  0
 10 39  1  0
 12 40  1  0
 13 41  1  0
 14 42  1  0
 19 43  1  0
 19 44  1  0
 21 45  1  0
 22 46  1  0
 23 47  1  0
 24 48  1  0
 25 49  1  0
M  END
>  <Unnamed: 0>  (118) 
644

>  <ID>  (118) 
TRAIN_0644

>  <Canonical_Smiles>  (118) 
CC(C)(C)OC(=O)N1CCc2cccc(C(=O)OCc3ccccc3)c12

>  <Inhibition>  (118) 
56.3

>  <TDC_conf_true_inhibitor>  (118) 
1

>  <TDC_conf_non_inhibitor>  (118) 
0

>  <split>  (118) 
1

$$$$
118
     RDKit          3D

 46 46  0  0  0  0  0  0  0  0999 V2000
   -3.8588    4.2773   -0.2830 C   0  0  0  0  0  0  0  0  0  0  0  0
   -2.4292    3.7998   -0.4479 C   0  0  0  0  0  0  0  0  0  0  0  0
   -2.4464    2.3700   -0.5400 O   0  0  0  0  0  0  0  0  0  0  0  0
   -1.2129    1.7952   -0.6613 C   0  0  0  0  0  0  0  0  0  0  0  0
   -0.1689    2.4332   -0.7292 O   0  0  0  0  0  0  0  0  0  0  0  0
   -1.3451    0.2589   -0.7713 C   0  0  0  0  0  0  0  0  0  0  0  0
   -2.3149   -0.3542    0.2565 C   0  0  0  0  0  0  0  0  0  0  0  0
   -3.7304   -0.4818   -0.3090 C   0  0  0  0  0  0  0  0  0  0  0  0
   -4.9223   -1.0737    0.9401 S   0  0  0  0  0  0  0  0  0  0  0  0
   -4.3809   -2.7951    1.0894 C   0  0  0  0  0  0  0  0  0  0  0  0
   -0.0370   -0.4222   -0.7082 N   0  0  0  0  0  0  0  0  0  0  0  0
    0.8943   -0.3932    0.3109 C   0  0  0  0  0  0  0  0  0  0  0  0
    2.2055   -0.6772    0.2226 C   0  0  0  0  0  0  0  0  0  0  0  0
    2.9088   -0.5592    1.5340 C   0  0  0  0  0  0  0  0  0  0  0  0
    1.8994    0.2061    2.3812 C   0  0  0  0  0  0  0  0  0  0  0  0
    0.5403   -0.0378    1.7302 C   0  0  0  0  0  0  0  0  0  0  0  0
    2.8945   -1.0591   -1.0234 C   0  0  0  0  0  0  0  0  0  0  0  0
    2.3748   -1.0578   -2.1308 O   0  0  0  0  0  0  0  0  0  0  0  0
    4.1769   -1.4085   -0.7491 O   0  0  0  0  0  0  0  0  0  0  0  0
    4.9365   -1.7938   -1.9001 C   0  0  0  0  0  0  0  0  0  0  0  0
    6.3380   -2.1498   -1.4439 C   0  0  0  0  0  0  0  0  0  0  0  0
   -4.3087    3.8429    0.6159 H   0  0  0  0  0  0  0  0  0  0  0  0
   -3.9000    5.3674   -0.2077 H   0  0  0  0  0  0  0  0  0  0  0  0
   -4.4722    3.9575   -1.1319 H   0  0  0  0  0  0  0  0  0  0  0  0
   -1.8338    4.1085    0.4186 H   0  0  0  0  0  0  0  0  0  0  0  0
   -2.0001    4.2232   -1.3628 H   0  0  0  0  0  0  0  0  0  0  0  0
   -1.7259    0.0707   -1.7835 H   0  0  0  0  0  0  0  0  0  0  0  0
   -1.9634   -1.3523    0.5439 H   0  0  0  0  0  0  0  0  0  0  0  0
   -2.3333    0.2566    1.1677 H   0  0  0  0  0  0  0  0  0  0  0  0
   -3.7493   -1.1604   -1.1685 H   0  0  0  0  0  0  0  0  0  0  0  0
   -4.0983    0.4871   -0.6576 H   0  0  0  0  0  0  0  0  0  0  0  0
   -5.0946   -3.3385    1.7147 H   0  0  0  0  0  0  0  0  0  0  0  0
   -3.3992   -2.8531    1.5650 H   0  0  0  0  0  0  0  0  0  0  0  0
   -4.3478   -3.2743    0.1076 H   0  0  0  0  0  0  0  0  0  0  0  0
    0.4253   -0.4769   -1.6251 H   0  0  0  0  0  0  0  0  0  0  0  0
    3.8504   -0.0059    1.4653 H   0  0  0  0  0  0  0  0  0  0  0  0
    3.1067   -1.5517    1.9530 H   0  0  0  0  0  0  0  0  0  0  0  0
    2.1334    1.2787    2.3575 H   0  0  0  0  0  0  0  0  0  0  0  0
    1.9175   -0.1061    3.4303 H   0  0  0  0  0  0  0  0  0  0  0  0
   -0.0759    0.8618    1.8084 H   0  0  0  0  0  0  0  0  0  0  0  0
    0.0177   -0.8718    2.2111 H   0  0  0  0  0  0  0  0  0  0  0  0
    4.9795   -0.9613   -2.6114 H   0  0  0  0  0  0  0  0  0  0  0  0
    4.4707   -2.6636   -2.3769 H   0  0  0  0  0  0  0  0  0  0  0  0
    6.3103   -2.9674   -0.7160 H   0  0  0  0  0  0  0  0  0  0  0  0
    6.9593   -2.4520   -2.2915 H   0  0  0  0  0  0  0  0  0  0  0  0
    6.8096   -1.2962   -0.9460 H   0  0  0  0  0  0  0  0  0  0  0  0
  1  2  1  0
  2  3  1  0
  3  4  1  0
  4  5  2  0
  4  6  1  0
  6  7  1  0
  7  8  1  0
  8  9  1  0
  9 10  1  0
  6 11  1  0
 11 12  1  0
 12 13  2  0
 13 14  1  0
 14 15  1  0
 15 16  1  0
 13 17  1  0
 17 18  2  0
 17 19  1  0
 19 20  1  0
 20 21  1  0
 16 12  1  0
  1 22  1  0
  1 23  1  0
  1 24  1  0
  2 25  1  0
  2 26  1  0
  6 27  1  0
  7 28  1  0
  7 29  1  0
  8 30  1  0
  8 31  1  0
 10 32  1  0
 10 33  1  0
 10 34  1  0
 11 35  1  0
 14 36  1  0
 14 37  1  0
 15 38  1  0
 15 39  1  0
 16 40  1  0
 16 41  1  0
 20 42  1  0
 20 43  1  0
 21 44  1  0
 21 45  1  0
 21 46  1  0
M  END
>  <Unnamed: 0>  (119) 
646

>  <ID>  (119) 
TRAIN_0646

>  <Canonical_Smiles>  (119) 
CCOC(=O)C(CCSC)NC1=C(CCC1)C(=O)OCC

>  <Inhibition>  (119) 
32.1

>  <TDC_conf_true_inhibitor>  (119) 
0

>  <TDC_conf_non_inhibitor>  (119) 
1

>  <split>  (119) 
1

$$$$
119
     RDKit          3D

 36 38  0  0  0  0  0  0  0  0999 V2000
    4.9144   -1.3729    0.6978 Cl  0  0  0  0  0  0  0  0  0  0  0  0
    3.3414   -2.0657    0.2351 C   0  0  0  0  0  0  0  0  0  0  0  0
    3.0258   -1.8305   -1.2367 C   0  0  0  0  0  0  0  0  0  0  0  0
    2.8099   -0.3595   -1.6010 C   0  0  0  0  0  0  0  0  0  0  0  0
    1.7006    0.2896   -0.9035 N   0  0  0  0  0  0  0  0  0  0  0  0
    0.5948   -0.4841   -0.6485 N   0  0  0  0  0  0  0  0  0  0  0  0
   -0.4570    0.0581   -0.1146 C   0  0  0  0  0  0  0  0  0  0  0  0
   -1.6207   -0.8325    0.0999 C   0  0  0  0  0  0  0  0  0  0  0  0
   -2.8158   -0.6120   -0.5942 C   0  0  0  0  0  0  0  0  0  0  0  0
   -3.8943   -1.4749   -0.3986 C   0  0  0  0  0  0  0  0  0  0  0  0
   -3.7706   -2.5571    0.4758 C   0  0  0  0  0  0  0  0  0  0  0  0
   -2.5663   -2.7792    1.1462 C   0  0  0  0  0  0  0  0  0  0  0  0
   -2.4193   -4.1218    2.2119 Cl  0  0  0  0  0  0  0  0  0  0  0  0
   -1.4833   -1.9247    0.9597 C   0  0  0  0  0  0  0  0  0  0  0  0
   -0.5240    1.4841    0.2682 C   0  0  0  0  0  0  0  0  0  0  0  0
   -1.6004    2.0471    0.9683 C   0  0  0  0  0  0  0  0  0  0  0  0
   -1.5960    3.4088    1.2834 C   0  0  0  0  0  0  0  0  0  0  0  0
   -0.5185    4.2103    0.9112 C   0  0  0  0  0  0  0  0  0  0  0  0
    0.5628    3.6480    0.2339 C   0  0  0  0  0  0  0  0  0  0  0  0
    0.5606    2.2815   -0.0788 C   0  0  0  0  0  0  0  0  0  0  0  0
    1.7221    1.6761   -0.7540 C   0  0  0  0  0  0  0  0  0  0  0  0
    2.6417    2.3991   -1.1303 O   0  0  0  0  0  0  0  0  0  0  0  0
    3.3963   -3.1401    0.4352 H   0  0  0  0  0  0  0  0  0  0  0  0
    2.5807   -1.6411    0.8957 H   0  0  0  0  0  0  0  0  0  0  0  0
    2.1309   -2.4086   -1.4980 H   0  0  0  0  0  0  0  0  0  0  0  0
    3.8381   -2.2319   -1.8555 H   0  0  0  0  0  0  0  0  0  0  0  0
    2.5897   -0.2824   -2.6729 H   0  0  0  0  0  0  0  0  0  0  0  0
    3.7287    0.2129   -1.4323 H   0  0  0  0  0  0  0  0  0  0  0  0
   -2.9069    0.2153   -1.2941 H   0  0  0  0  0  0  0  0  0  0  0  0
   -4.8272   -1.3128   -0.9336 H   0  0  0  0  0  0  0  0  0  0  0  0
   -4.6123   -3.2299    0.6225 H   0  0  0  0  0  0  0  0  0  0  0  0
   -0.5421   -2.1042    1.4720 H   0  0  0  0  0  0  0  0  0  0  0  0
   -2.4489    1.4492    1.2888 H   0  0  0  0  0  0  0  0  0  0  0  0
   -2.4331    3.8447    1.8247 H   0  0  0  0  0  0  0  0  0  0  0  0
   -0.5134    5.2697    1.1576 H   0  0  0  0  0  0  0  0  0  0  0  0
    1.4116    4.2718   -0.0410 H   0  0  0  0  0  0  0  0  0  0  0  0
  1  2  1  0
  2  3  1  0
  3  4  1  0
  4  5  1  0
  5  6  1  0
  6  7  2  0
  7  8  1  0
  8  9  2  0
  9 10  1  0
 10 11  2  0
 11 12  1  0
 12 13  1  0
 12 14  2  0
  7 15  1  0
 15 16  2  0
 16 17  1  0
 17 18  2  0
 18 19  1  0
 19 20  2  0
 20 21  1  0
 21 22  2  0
 21  5  1  0
 14  8  1  0
 20 15  1  0
  2 23  1  0
  2 24  1  0
  3 25  1  0
  3 26  1  0
  4 27  1  0
  4 28  1  0
  9 29  1  0
 10 30  1  0
 11 31  1  0
 14 32  1  0
 16 33  1  0
 17 34  1  0
 18 35  1  0
 19 36  1  0
M  END
>  <Unnamed: 0>  (120) 
677

>  <ID>  (120) 
TRAIN_0677

>  <Canonical_Smiles>  (120) 
ClCCCN1N=C(c2cccc(Cl)c2)c3ccccc3C1=O

>  <Inhibition>  (120) 
27.8

>  <TDC_conf_true_inhibitor>  (120) 
1

>  <TDC_conf_non_inhibitor>  (120) 
0

>  <split>  (120) 
1

$$$$
120
     RDKit          3D

 39 41  0  0  0  0  0  0  0  0999 V2000
   -0.5779   -1.4750   -1.8991 C   0  0  0  0  0  0  0  0  0  0  0  0
   -0.0356   -0.5912   -0.8700 N   0  0  0  0  0  0  0  0  0  0  0  0
    1.3575   -0.4478   -0.8401 C   0  0  0  0  0  0  0  0  0  0  0  0
    2.0614   -1.0888   -1.6281 O   0  0  0  0  0  0  0  0  0  0  0  0
    1.8806    0.4756    0.0767 N   0  0  0  0  0  0  0  0  0  0  0  0
    1.0599    1.2650    0.8677 C   0  0  0  0  0  0  0  0  0  0  0  0
    1.4149    2.1172    1.6828 O   0  0  0  0  0  0  0  0  0  0  0  0
   -0.3820    1.0180    0.7776 C   0  0  0  0  0  0  0  0  0  0  0  0
   -0.9056    0.0980   -0.0399 C   0  0  0  0  0  0  0  0  0  0  0  0
   -2.2903   -0.1360   -0.0413 N   0  0  0  0  0  0  0  0  0  0  0  0
   -3.2762    0.9596    0.1303 C   0  0  0  0  0  0  0  0  0  0  0  0
   -4.7003    0.4811   -0.2196 C   0  0  0  0  0  0  0  0  0  0  0  0
   -5.1941   -0.6202    0.6288 N   0  0  0  0  0  0  0  0  0  0  0  0
   -4.0814   -1.4261    1.1617 C   0  0  0  0  0  0  0  0  0  0  0  0
   -2.8299   -1.4867    0.2591 C   0  0  0  0  0  0  0  0  0  0  0  0
    3.3185    0.6363    0.1735 C   0  0  0  0  0  0  0  0  0  0  0  0
    3.9012    1.8952    0.4146 C   0  0  0  0  0  0  0  0  0  0  0  0
    5.2886    2.0505    0.5135 C   0  0  0  0  0  0  0  0  0  0  0  0
    6.1169    0.9460    0.3758 C   0  0  0  0  0  0  0  0  0  0  0  0
    7.4433    1.1154    0.4761 F   0  0  0  0  0  0  0  0  0  0  0  0
    5.5724   -0.3106    0.1406 C   0  0  0  0  0  0  0  0  0  0  0  0
    6.5919   -1.6905   -0.0152 Cl  0  0  0  0  0  0  0  0  0  0  0  0
    4.1854   -0.4652    0.0401 C   0  0  0  0  0  0  0  0  0  0  0  0
   -0.7779   -2.4536   -1.4528 H   0  0  0  0  0  0  0  0  0  0  0  0
   -1.4928   -1.0545   -2.3284 H   0  0  0  0  0  0  0  0  0  0  0  0
    0.1229   -1.6164   -2.7275 H   0  0  0  0  0  0  0  0  0  0  0  0
   -0.9848    1.6002    1.4622 H   0  0  0  0  0  0  0  0  0  0  0  0
   -3.2578    1.3275    1.1636 H   0  0  0  0  0  0  0  0  0  0  0  0
   -3.0117    1.7935   -0.5307 H   0  0  0  0  0  0  0  0  0  0  0  0
   -4.7131    0.1486   -1.2654 H   0  0  0  0  0  0  0  0  0  0  0  0
   -5.4003    1.3195   -0.1405 H   0  0  0  0  0  0  0  0  0  0  0  0
   -5.8096   -1.2087    0.0677 H   0  0  0  0  0  0  0  0  0  0  0  0
   -3.7976   -1.0071    2.1352 H   0  0  0  0  0  0  0  0  0  0  0  0
   -4.4427   -2.4421    1.3560 H   0  0  0  0  0  0  0  0  0  0  0  0
   -3.0924   -1.9821   -0.6829 H   0  0  0  0  0  0  0  0  0  0  0  0
   -2.0690   -2.0986    0.7586 H   0  0  0  0  0  0  0  0  0  0  0  0
    3.2914    2.7923    0.5013 H   0  0  0  0  0  0  0  0  0  0  0  0
    5.7224    3.0293    0.6947 H   0  0  0  0  0  0  0  0  0  0  0  0
    3.7937   -1.4678   -0.1149 H   0  0  0  0  0  0  0  0  0  0  0  0
  1  2  1  0
  2  3  1  0
  3  4  2  0
  3  5  1  0
  5  6  1  0
  6  7  2  0
  6  8  1  0
  8  9  2  0
  9 10  1  0
 10 11  1  0
 11 12  1  0
 12 13  1  0
 13 14  1  0
 14 15  1  0
  5 16  1  0
 16 17  2  0
 17 18  1  0
 18 19  2  0
 19 20  1  0
 19 21  1  0
 21 22  1  0
 21 23  2  0
  9  2  1  0
 15 10  1  0
 23 16  1  0
  1 24  1  0
  1 25  1  0
  1 26  1  0
  8 27  1  0
 11 28  1  0
 11 29  1  0
 12 30  1  0
 12 31  1  0
 13 32  1  0
 14 33  1  0
 14 34  1  0
 15 35  1  0
 15 36  1  0
 17 37  1  0
 18 38  1  0
 23 39  1  0
M  END
>  <Unnamed: 0>  (121) 
682

>  <ID>  (121) 
TRAIN_0682

>  <Canonical_Smiles>  (121) 
CN1C(=O)N(C(=O)C=C1N2CCNCC2)c3ccc(F)c(Cl)c3

>  <Inhibition>  (121) 
25.7

>  <TDC_conf_true_inhibitor>  (121) 
0

>  <TDC_conf_non_inhibitor>  (121) 
1

>  <split>  (121) 
1

$$$$
121
     RDKit          3D

 42 45  0  0  0  0  0  0  0  0999 V2000
   -5.7181   -0.0435    3.3301 C   0  0  0  0  0  0  0  0  0  0  0  0
   -4.5719    0.1886    2.4348 C   0  0  0  0  0  0  0  0  0  0  0  0
   -3.7674    1.2361    2.7448 O   0  0  0  0  0  0  0  0  0  0  0  0
   -2.7495    1.3189    1.8175 N   0  0  0  0  0  0  0  0  0  0  0  0
   -2.9435    0.3132    0.9550 C   0  0  0  0  0  0  0  0  0  0  0  0
   -4.0943   -0.4285    1.3031 C   0  0  0  0  0  0  0  0  0  0  0  0
   -2.0328    0.1455   -0.1565 N   0  0  0  0  0  0  0  0  0  0  0  0
   -2.1682   -0.7561   -1.2190 C   0  0  0  0  0  0  0  0  0  0  0  0
   -3.2463   -1.7710   -1.3661 C   0  0  0  0  0  0  0  0  0  0  0  0
   -1.1529   -0.5250   -2.1249 C   0  0  0  0  0  0  0  0  0  0  0  0
   -0.3251    0.5081   -1.6318 C   0  0  0  0  0  0  0  0  0  0  0  0
    0.8628    1.0899   -2.2842 C   0  0  0  0  0  0  0  0  0  0  0  0
    1.2713    2.2101   -1.9750 O   0  0  0  0  0  0  0  0  0  0  0  0
    1.5040    0.2854   -3.4110 C   0  0  0  0  0  0  0  0  0  0  0  0
    3.2758    0.6361   -3.5980 S   0  0  0  0  0  0  0  0  0  0  0  0
    3.8431    0.1140   -2.0350 C   0  0  0  0  0  0  0  0  0  0  0  0
    3.1111   -0.6904   -1.2136 N   0  0  0  0  0  0  0  0  0  0  0  0
    3.8765   -0.8159   -0.1526 C   0  0  0  0  0  0  0  0  0  0  0  0
    3.6484   -1.5031    1.0075 N   0  0  0  0  0  0  0  0  0  0  0  0
    4.5891   -1.4335    1.8996 C   0  0  0  0  0  0  0  0  0  0  0  0
    5.8773   -0.6931    1.7743 C   0  0  0  0  0  0  0  0  0  0  0  0
    6.0507   -0.0478    0.6129 C   0  0  0  0  0  0  0  0  0  0  0  0
    5.0617   -0.0982   -0.3613 N   0  0  0  0  0  0  0  0  0  0  0  0
    5.0449    0.4699   -1.5838 N   0  0  0  0  0  0  0  0  0  0  0  0
   -0.8450    0.8623   -0.3885 C   0  0  0  0  0  0  0  0  0  0  0  0
   -0.2627    1.8269    0.5999 C   0  0  0  0  0  0  0  0  0  0  0  0
   -6.3857    0.8234    3.3311 H   0  0  0  0  0  0  0  0  0  0  0  0
   -6.2949   -0.9170    3.0111 H   0  0  0  0  0  0  0  0  0  0  0  0
   -5.3758   -0.2176    4.3547 H   0  0  0  0  0  0  0  0  0  0  0  0
   -4.5401   -1.2903    0.8380 H   0  0  0  0  0  0  0  0  0  0  0  0
   -3.1114   -2.3459   -2.2896 H   0  0  0  0  0  0  0  0  0  0  0  0
   -3.2242   -2.4893   -0.5414 H   0  0  0  0  0  0  0  0  0  0  0  0
   -4.2295   -1.2957   -1.4297 H   0  0  0  0  0  0  0  0  0  0  0  0
   -1.0379   -1.0601   -3.0599 H   0  0  0  0  0  0  0  0  0  0  0  0
    1.3825   -0.7886   -3.2415 H   0  0  0  0  0  0  0  0  0  0  0  0
    0.9938    0.5442   -4.3442 H   0  0  0  0  0  0  0  0  0  0  0  0
    4.4521   -1.9673    2.8552 H   0  0  0  0  0  0  0  0  0  0  0  0
    6.5901   -0.7055    2.5860 H   0  0  0  0  0  0  0  0  0  0  0  0
    6.9313    0.5316    0.3697 H   0  0  0  0  0  0  0  0  0  0  0  0
    0.7814    2.0600    0.3751 H   0  0  0  0  0  0  0  0  0  0  0  0
   -0.8212    2.7677    0.5985 H   0  0  0  0  0  0  0  0  0  0  0  0
   -0.2494    1.4021    1.6086 H   0  0  0  0  0  0  0  0  0  0  0  0
  1  2  1  0
  2  3  1  0
  3  4  1  0
  4  5  2  0
  5  6  1  0
  5  7  1  0
  7  8  1  0
  8  9  1  0
  8 10  2  0
 10 11  1  0
 11 12  1  0
 12 13  2  0
 12 14  1  0
 14 15  1  0
 15 16  1  0
 16 17  1  0
 17 18  2  0
 18 19  1  0
 19 20  2  0
 20 21  1  0
 21 22  2  0
 22 23  1  0
 23 24  1  0
 11 25  2  0
 25 26  1  0
  6  2  2  0
 25  7  1  0
 24 16  2  0
 23 18  1  0
  1 27  1  0
  1 28  1  0
  1 29  1  0
  6 30  1  0
  9 31  1  0
  9 32  1  0
  9 33  1  0
 10 34  1  0
 14 35  1  0
 14 36  1  0
 20 37  1  0
 21 38  1  0
 22 39  1  0
 26 40  1  0
 26 41  1  0
 26 42  1  0
M  END
>  <Unnamed: 0>  (122) 
688

>  <ID>  (122) 
TRAIN_0688

>  <Canonical_Smiles>  (122) 
Cc1onc(c1)n2c(C)cc(C(=O)CSc3nc4ncccn4n3)c2C

>  <Inhibition>  (122) 
7.739346

>  <TDC_conf_true_inhibitor>  (122) 
0

>  <TDC_conf_non_inhibitor>  (122) 
1

>  <split>  (122) 
1

$$$$
122
     RDKit          3D

 47 48  0  0  0  0  0  0  0  0999 V2000
   -3.8021    3.4217   -0.1919 C   0  0  0  0  0  0  0  0  0  0  0  0
   -3.2977    2.0478   -0.6088 C   0  0  0  0  0  0  0  0  0  0  0  0
   -2.6039    1.2612    0.5079 C   0  0  0  0  0  0  0  0  0  0  0  0
   -2.5714    1.7995    1.6906 N   0  0  0  0  0  0  0  0  0  0  0  0
   -1.9076    1.1383    2.6692 N   0  0  0  0  0  0  0  0  0  0  0  0
   -1.1775   -0.0065    2.5004 C   0  0  0  0  0  0  0  0  0  0  0  0
   -0.5250   -0.4932    3.4191 O   0  0  0  0  0  0  0  0  0  0  0  0
   -1.2256   -0.6109    1.1476 C   0  0  0  0  0  0  0  0  0  0  0  0
   -1.9830   -0.0671    0.1728 C   0  0  0  0  0  0  0  0  0  0  0  0
   -2.2119   -0.6777   -1.1892 C   0  0  0  0  0  0  0  0  0  0  0  0
   -3.5232   -1.4559   -1.2512 C   0  0  0  0  0  0  0  0  0  0  0  0
   -0.5170   -1.8947    0.9111 C   0  0  0  0  0  0  0  0  0  0  0  0
   -1.1826   -2.9157    0.7266 O   0  0  0  0  0  0  0  0  0  0  0  0
    0.8785   -1.8807    0.8572 N   0  0  0  0  0  0  0  0  0  0  0  0
    1.5667   -3.1517    0.6914 C   0  0  0  0  0  0  0  0  0  0  0  0
    1.7184   -0.6643    0.9153 C   0  0  0  0  0  0  0  0  0  0  0  0
    2.1620   -0.1377   -0.4790 C   0  0  0  0  0  0  0  0  0  0  0  0
    1.1286   -0.3378   -1.4400 O   0  0  0  0  0  0  0  0  0  0  0  0
    3.4771   -0.7495   -0.9712 C   0  0  0  0  0  0  0  0  0  0  0  0
    4.5821    0.0671   -0.3035 C   0  0  0  0  0  0  0  0  0  0  0  0
    3.9374    1.3856    0.1255 C   0  0  0  0  0  0  0  0  0  0  0  0
    2.5224    1.3536   -0.4364 C   0  0  0  0  0  0  0  0  0  0  0  0
   -4.2789    3.9247   -1.0393 H   0  0  0  0  0  0  0  0  0  0  0  0
   -4.5366    3.3446    0.6178 H   0  0  0  0  0  0  0  0  0  0  0  0
   -2.9791    4.0495    0.1591 H   0  0  0  0  0  0  0  0  0  0  0  0
   -4.1447    1.4594   -0.9785 H   0  0  0  0  0  0  0  0  0  0  0  0
   -2.5840    2.1824   -1.4284 H   0  0  0  0  0  0  0  0  0  0  0  0
   -1.8877    1.5760    3.5848 H   0  0  0  0  0  0  0  0  0  0  0  0
   -1.3976   -1.3582   -1.4596 H   0  0  0  0  0  0  0  0  0  0  0  0
   -2.1957    0.0876   -1.9711 H   0  0  0  0  0  0  0  0  0  0  0  0
   -3.5211   -2.2938   -0.5446 H   0  0  0  0  0  0  0  0  0  0  0  0
   -4.3862   -0.8247   -1.0189 H   0  0  0  0  0  0  0  0  0  0  0  0
   -3.6753   -1.8672   -2.2561 H   0  0  0  0  0  0  0  0  0  0  0  0
    1.9311   -3.2154   -0.3415 H   0  0  0  0  0  0  0  0  0  0  0  0
    2.4139   -3.1998    1.3909 H   0  0  0  0  0  0  0  0  0  0  0  0
    0.9048   -4.0096    0.8765 H   0  0  0  0  0  0  0  0  0  0  0  0
    1.1528    0.1278    1.4123 H   0  0  0  0  0  0  0  0  0  0  0  0
    2.5789   -0.8702    1.5653 H   0  0  0  0  0  0  0  0  0  0  0  0
    0.8875   -1.2794   -1.3769 H   0  0  0  0  0  0  0  0  0  0  0  0
    3.5540   -0.6540   -2.0624 H   0  0  0  0  0  0  0  0  0  0  0  0
    3.5768   -1.8168   -0.7509 H   0  0  0  0  0  0  0  0  0  0  0  0
    4.9823   -0.4609    0.5697 H   0  0  0  0  0  0  0  0  0  0  0  0
    5.4171    0.2348   -0.9939 H   0  0  0  0  0  0  0  0  0  0  0  0
    4.4999    2.2541   -0.2381 H   0  0  0  0  0  0  0  0  0  0  0  0
    3.9112    1.4465    1.2194 H   0  0  0  0  0  0  0  0  0  0  0  0
    1.8273    1.9477    0.1659 H   0  0  0  0  0  0  0  0  0  0  0  0
    2.5045    1.7837   -1.4482 H   0  0  0  0  0  0  0  0  0  0  0  0
  1  2  1  0
  2  3  1  0
  3  4  2  0
  4  5  1  0
  5  6  1  0
  6  7  2  0
  6  8  1  0
  8  9  2  0
  9 10  1  0
 10 11  1  0
  8 12  1  0
 12 13  2  0
 12 14  1  0
 14 15  1  0
 14 16  1  0
 16 17  1  0
 17 18  1  0
 17 19  1  0
 19 20  1  0
 20 21  1  0
 21 22  1  0
  9  3  1  0
 22 17  1  0
  1 23  1  0
  1 24  1  0
  1 25  1  0
  2 26  1  0
  2 27  1  0
  5 28  1  0
 10 29  1  0
 10 30  1  0
 11 31  1  0
 11 32  1  0
 11 33  1  0
 15 34  1  0
 15 35  1  0
 15 36  1  0
 16 37  1  0
 16 38  1  0
 18 39  1  0
 19 40  1  0
 19 41  1  0
 20 42  1  0
 20 43  1  0
 21 44  1  0
 21 45  1  0
 22 46  1  0
 22 47  1  0
M  END
>  <Unnamed: 0>  (123) 
696

>  <ID>  (123) 
TRAIN_0696

>  <Canonical_Smiles>  (123) 
CCC1=NNC(=O)C(=C1CC)C(=O)N(C)CC2(O)CCCC2

>  <Inhibition>  (123) 
17.721453

>  <TDC_conf_true_inhibitor>  (123) 
0

>  <TDC_conf_non_inhibitor>  (123) 
1

>  <split>  (123) 
1

$$$$
123
     RDKit          3D

 56 59  0  0  0  0  0  0  0  0999 V2000
   -7.2787    0.9376    0.7551 C   0  0  0  0  0  0  0  0  0  0  0  0
   -5.8225    1.1642    0.4091 C   0  0  0  0  0  0  0  0  0  0  0  0
   -5.5636    1.9610   -0.4931 O   0  0  0  0  0  0  0  0  0  0  0  0
   -4.8846    0.4511    1.1665 N   0  0  0  0  0  0  0  0  0  0  0  0
   -5.2907   -0.3556    2.3261 C   0  0  0  0  0  0  0  0  0  0  0  0
   -4.1885   -0.4264    3.3666 C   0  0  0  0  0  0  0  0  0  0  0  0
   -3.0198   -1.0283    2.8181 O   0  0  0  0  0  0  0  0  0  0  0  0
   -2.6260   -0.4067    1.6567 C   0  0  0  0  0  0  0  0  0  0  0  0
   -1.2811   -0.6003    1.3326 C   0  0  0  0  0  0  0  0  0  0  0  0
   -0.7473   -0.0285    0.1747 C   0  0  0  0  0  0  0  0  0  0  0  0
   -1.5599    0.7470   -0.6666 C   0  0  0  0  0  0  0  0  0  0  0  0
   -1.0521    1.4287   -1.9084 C   0  0  0  0  0  0  0  0  0  0  0  0
   -2.9192    0.9203   -0.3191 C   0  0  0  0  0  0  0  0  0  0  0  0
   -3.4850    0.3445    0.8293 C   0  0  0  0  0  0  0  0  0  0  0  0
    0.9756   -0.3194   -0.1755 S   0  0  0  0  0  6  0  0  0  0  0  0
    1.5834    0.9387   -0.5551 O   0  0  0  0  0  0  0  0  0  0  0  0
    1.5333   -1.1131    0.8986 O   0  0  0  0  0  0  0  0  0  0  0  0
    0.9141   -1.2930   -1.5505 N   0  0  0  0  0  0  0  0  0  0  0  0
    0.4061   -2.6565   -1.3413 C   0  0  0  0  0  0  0  0  0  0  0  0
    0.6505   -3.5266   -2.9065 S   0  0  0  0  0  0  0  0  0  0  0  0
    1.8496   -2.3196   -3.5357 C   0  0  0  0  0  0  0  0  0  0  0  0
    2.1454   -1.3437   -2.3937 C   0  0  2  0  0  0  0  0  0  0  0  0
    3.4069   -1.7413   -1.6197 C   0  0  0  0  0  0  0  0  0  0  0  0
    3.7963   -2.9023   -1.5218 O   0  0  0  0  0  0  0  0  0  0  0  0
    4.0487   -0.6880   -1.0104 N   0  0  0  0  0  0  0  0  0  0  0  0
    5.1811   -0.8845   -0.1331 C   0  0  0  0  0  0  0  0  0  0  0  0
    5.0978    0.1324    0.9570 C   0  0  0  0  0  0  0  0  0  0  0  0
    4.6588   -0.0845    2.2499 C   0  0  0  0  0  0  0  0  0  0  0  0
    4.6799    1.3803    3.1353 S   0  0  0  0  0  0  0  0  0  0  0  0
    5.2523    2.2012    1.7382 C   0  0  0  0  0  0  0  0  0  0  0  0
    5.5041    3.6664    1.7889 C   0  0  0  0  0  0  0  0  0  0  0  0
    5.4328    1.4510    0.6726 N   0  0  0  0  0  0  0  0  0  0  0  0
   -7.4995   -0.1285    0.8567 H   0  0  0  0  0  0  0  0  0  0  0  0
   -7.9038    1.3226   -0.0569 H   0  0  0  0  0  0  0  0  0  0  0  0
   -7.5330    1.4774    1.6708 H   0  0  0  0  0  0  0  0  0  0  0  0
   -6.1842    0.0645    2.7959 H   0  0  0  0  0  0  0  0  0  0  0  0
   -5.5354   -1.3556    1.9467 H   0  0  0  0  0  0  0  0  0  0  0  0
   -4.5133   -1.0442    4.2104 H   0  0  0  0  0  0  0  0  0  0  0  0
   -3.9374    0.5664    3.7620 H   0  0  0  0  0  0  0  0  0  0  0  0
   -0.6612   -1.1943    2.0012 H   0  0  0  0  0  0  0  0  0  0  0  0
   -1.8770    1.8161   -2.5160 H   0  0  0  0  0  0  0  0  0  0  0  0
   -0.5008    0.7351   -2.5476 H   0  0  0  0  0  0  0  0  0  0  0  0
   -0.4151    2.2763   -1.6415 H   0  0  0  0  0  0  0  0  0  0  0  0
   -3.5225    1.5164   -0.9968 H   0  0  0  0  0  0  0  0  0  0  0  0
   -0.6600   -2.6484   -1.1039 H   0  0  0  0  0  0  0  0  0  0  0  0
    0.9559   -3.1862   -0.5587 H   0  0  0  0  0  0  0  0  0  0  0  0
    2.7409   -2.8205   -3.9244 H   0  0  0  0  0  0  0  0  0  0  0  0
    1.3695   -1.7908   -4.3662 H   0  0  0  0  0  0  0  0  0  0  0  0
    2.3194   -0.3559   -2.8393 H   0  0  0  0  0  0  0  0  0  0  0  0
    3.6490    0.2482   -1.0315 H   0  0  0  0  0  0  0  0  0  0  0  0
    5.1896   -1.9022    0.2699 H   0  0  0  0  0  0  0  0  0  0  0  0
    6.0902   -0.7373   -0.7247 H   0  0  0  0  0  0  0  0  0  0  0  0
    4.3167   -1.0085    2.6943 H   0  0  0  0  0  0  0  0  0  0  0  0
    4.5875    4.2112    2.0348 H   0  0  0  0  0  0  0  0  0  0  0  0
    5.8596    4.0268    0.8183 H   0  0  0  0  0  0  0  0  0  0  0  0
    6.2668    3.9051    2.5370 H   0  0  0  0  0  0  0  0  0  0  0  0
  1  2  1  0
  2  3  2  0
  2  4  1  0
  4  5  1  0
  5  6  1  0
  6  7  1  0
  7  8  1  0
  8  9  2  0
  9 10  1  0
 10 11  2  0
 11 12  1  0
 11 13  1  0
 13 14  2  0
 10 15  1  0
 15 16  2  0
 15 17  2  0
 15 18  1  0
 18 19  1  0
 19 20  1  0
 20 21  1  0
 21 22  1  0
 22 23  1  0
 23 24  2  0
 23 25  1  0
 25 26  1  0
 26 27  1  0
 27 28  2  0
 28 29  1  0
 29 30  1  0
 30 31  1  0
 30 32  2  0
 14  4  1  0
 14  8  1  0
 22 18  1  0
 32 27  1  0
  1 33  1  0
  1 34  1  0
  1 35  1  0
  5 36  1  0
  5 37  1  0
  6 38  1  0
  6 39  1  0
  9 40  1  0
 12 41  1  0
 12 42  1  0
 12 43  1  0
 13 44  1  0
 19 45  1  0
 19 46  1  0
 21 47  1  0
 21 48  1  0
 22 49  1  6
 25 50  1  0
 26 51  1  0
 26 52  1  0
 28 53  1  0
 31 54  1  0
 31 55  1  0
 31 56  1  0
M  END
>  <Unnamed: 0>  (124) 
700

>  <ID>  (124) 
TRAIN_0700

>  <Canonical_Smiles>  (124) 
CC(=O)N1CCOc2cc(c(C)cc12)S(=O)(=O)N3CSC[C@@H]3C(=O)NCc4csc(C)n4

>  <Inhibition>  (124) 
69.181592

>  <TDC_conf_true_inhibitor>  (124) 
1

>  <TDC_conf_non_inhibitor>  (124) 
0

>  <split>  (124) 
1

$$$$
124
     RDKit          3D

 24 25  0  0  0  0  0  0  0  0999 V2000
   -3.0978    2.7081    2.4088 C   0  0  0  0  0  0  0  0  0  0  0  0
   -2.4282    1.7944    1.6897 C   0  0  0  0  0  0  0  0  0  0  0  0
   -3.0752    0.7781    0.7955 C   0  0  0  0  0  0  0  0  0  0  0  0
   -2.7091    1.1334   -0.9405 S   0  0  0  0  0  0  0  0  0  0  0  0
   -1.1379    0.4256   -1.1139 C   0  0  0  0  0  0  0  0  0  0  0  0
   -0.4692   -0.1475   -0.1577 N   0  0  0  0  0  0  0  0  0  0  0  0
    0.7205   -0.5842   -0.6733 N   0  0  0  0  0  0  0  0  0  0  0  0
    1.6253   -1.3325    0.1728 C   0  0  0  0  0  0  0  0  0  0  0  0
    3.0318   -1.1713   -0.3508 C   0  0  0  0  0  0  0  0  0  0  0  0
    3.0668   -1.7101   -2.0414 S   0  0  0  0  0  6  0  0  0  0  0  0
    4.3572   -1.3186   -2.5746 O   0  0  0  0  0  0  0  0  0  0  0  0
    2.6650   -3.1039   -2.0481 O   0  0  0  0  0  0  0  0  0  0  0  0
    1.9148   -0.8218   -2.7535 N   0  0  0  0  0  0  0  0  0  0  0  0
    0.9418   -0.4307   -2.0186 C   0  0  0  0  0  0  0  0  0  0  0  0
   -0.3888    0.4803   -2.7024 S   0  0  0  0  0  0  0  0  0  0  0  0
   -4.1814    2.7882    2.3728 H   0  0  0  0  0  0  0  0  0  0  0  0
   -2.5663    3.4208    3.0348 H   0  0  0  0  0  0  0  0  0  0  0  0
   -1.3437    1.7672    1.7652 H   0  0  0  0  0  0  0  0  0  0  0  0
   -4.1650    0.8108    0.9095 H   0  0  0  0  0  0  0  0  0  0  0  0
   -2.7665   -0.2365    1.0727 H   0  0  0  0  0  0  0  0  0  0  0  0
    1.3233   -2.3869    0.1914 H   0  0  0  0  0  0  0  0  0  0  0  0
    1.5762   -0.9584    1.2027 H   0  0  0  0  0  0  0  0  0  0  0  0
    3.7454   -1.7785    0.2146 H   0  0  0  0  0  0  0  0  0  0  0  0
    3.3608   -0.1261   -0.3302 H   0  0  0  0  0  0  0  0  0  0  0  0
  1  2  2  0
  2  3  1  0
  3  4  1  0
  4  5  1  0
  5  6  2  0
  6  7  1  0
  7  8  1  0
  8  9  1  0
  9 10  1  0
 10 11  2  0
 10 12  2  0
 10 13  1  0
 13 14  2  0
 14 15  1  0
 15  5  1  0
 14  7  1  0
  1 16  1  0
  1 17  1  0
  2 18  1  0
  3 19  1  0
  3 20  1  0
  8 21  1  0
  8 22  1  0
  9 23  1  0
  9 24  1  0
M  END
>  <Unnamed: 0>  (125) 
707

>  <ID>  (125) 
TRAIN_0707

>  <Canonical_Smiles>  (125) 
C=CCSC1=NN2CCS(=O)(=O)N=C2S1

>  <Inhibition>  (125) 
2.164585

>  <TDC_conf_true_inhibitor>  (125) 
0

>  <TDC_conf_non_inhibitor>  (125) 
1

>  <split>  (125) 
1

$$$$
125
     RDKit          3D

 49 50  0  0  0  0  0  0  0  0999 V2000
    2.6634    2.0421    2.3465 C   0  0  0  0  0  0  0  0  0  0  0  0
    2.1794    0.7231    1.7757 C   0  0  0  0  0  0  0  0  0  0  0  0
    3.2249    0.1019    1.0114 O   0  0  0  0  0  0  0  0  0  0  0  0
    3.2523    0.4242   -0.3007 C   0  0  0  0  0  0  0  0  0  0  0  0
    2.5432    1.2249   -0.8836 O   0  0  0  0  0  0  0  0  0  0  0  0
    4.3025   -0.3586   -0.9492 C   0  0  0  0  0  0  0  0  0  0  0  0
    4.1307   -1.2789   -1.9065 C   0  0  0  0  0  0  0  0  0  0  0  0
    5.5494   -1.9707   -2.6466 S   0  0  0  0  0  0  0  0  0  0  0  0
    4.5996   -2.9272   -3.8515 C   0  0  0  0  0  0  0  0  0  0  0  0
    3.1478   -2.7125   -3.5109 C   0  0  0  0  0  0  0  0  0  0  0  0
    2.2347   -3.2642   -4.1166 O   0  0  0  0  0  0  0  0  0  0  0  0
    2.9813   -1.8217   -2.4466 N   0  0  0  0  0  0  0  0  0  0  0  0
    1.6249   -1.5993   -1.9579 C   0  0  0  0  0  0  0  0  0  0  0  0
    0.8264   -0.5992   -2.8039 C   0  0  0  0  0  0  0  0  0  0  0  0
   -0.0747    0.1773   -1.9928 O   0  0  0  0  0  0  0  0  0  0  0  0
   -1.1226   -0.4862   -1.4438 C   0  0  0  0  0  0  0  0  0  0  0  0
   -1.3975   -1.6589   -1.6491 O   0  0  0  0  0  0  0  0  0  0  0  0
   -1.9033    0.4350   -0.5419 C   0  0  0  0  0  0  0  0  0  0  0  0
   -2.4913   -0.3481    0.6306 C   0  0  0  0  0  0  0  0  0  0  0  0
   -3.1502    0.5541    1.6424 C   0  0  0  0  0  0  0  0  0  0  0  0
   -4.4679    0.8128    1.7485 C   0  0  0  0  0  0  0  0  0  0  0  0
   -5.5305    0.2913    0.8208 C   0  0  0  0  0  0  0  0  0  0  0  0
   -4.9305    1.6280    2.7548 N   0  0  0  0  0  0  0  0  0  0  0  0
   -4.1425    2.2205    3.6971 C   0  0  0  0  0  0  0  0  0  0  0  0
   -4.6062    2.9396    4.5748 O   0  0  0  0  0  0  0  0  0  0  0  0
   -2.8110    1.9626    3.5989 N   0  0  0  0  0  0  0  0  0  0  0  0
   -2.2336    1.1788    2.6458 C   0  0  0  0  0  0  0  0  0  0  0  0
   -1.0192    1.0006    2.6114 O   0  0  0  0  0  0  0  0  0  0  0  0
    2.9402    2.7376    1.5458 H   0  0  0  0  0  0  0  0  0  0  0  0
    3.5557    1.8898    2.9615 H   0  0  0  0  0  0  0  0  0  0  0  0
    1.8836    2.5058    2.9575 H   0  0  0  0  0  0  0  0  0  0  0  0
    1.9262    0.0374    2.5905 H   0  0  0  0  0  0  0  0  0  0  0  0
    1.2749    0.8567    1.1718 H   0  0  0  0  0  0  0  0  0  0  0  0
    5.2956   -0.0874   -0.6100 H   0  0  0  0  0  0  0  0  0  0  0  0
    4.7982   -2.5642   -4.8632 H   0  0  0  0  0  0  0  0  0  0  0  0
    4.8492   -3.9878   -3.7652 H   0  0  0  0  0  0  0  0  0  0  0  0
    1.6345   -1.3362   -0.8985 H   0  0  0  0  0  0  0  0  0  0  0  0
    1.1012   -2.5641   -1.9864 H   0  0  0  0  0  0  0  0  0  0  0  0
    0.2710   -1.1000   -3.6061 H   0  0  0  0  0  0  0  0  0  0  0  0
    1.4989    0.1200   -3.2855 H   0  0  0  0  0  0  0  0  0  0  0  0
   -1.2305    1.2158   -0.1699 H   0  0  0  0  0  0  0  0  0  0  0  0
   -2.6902    0.9131   -1.1353 H   0  0  0  0  0  0  0  0  0  0  0  0
   -3.1961   -1.1011    0.2601 H   0  0  0  0  0  0  0  0  0  0  0  0
   -1.7056   -0.9361    1.1216 H   0  0  0  0  0  0  0  0  0  0  0  0
   -6.1779   -0.4219    1.3441 H   0  0  0  0  0  0  0  0  0  0  0  0
   -5.1248   -0.2056   -0.0640 H   0  0  0  0  0  0  0  0  0  0  0  0
   -6.1541    1.1168    0.4569 H   0  0  0  0  0  0  0  0  0  0  0  0
   -5.9213    1.8267    2.8381 H   0  0  0  0  0  0  0  0  0  0  0  0
   -2.2081    2.3935    4.2790 H   0  0  0  0  0  0  0  0  0  0  0  0
  1  2  1  0
  2  3  1  0
  3  4  1  0
  4  5  2  0
  4  6  1  0
  6  7  2  0
  7  8  1  0
  8  9  1  0
  9 10  1  0
 10 11  2  0
 10 12  1  0
 12 13  1  0
 13 14  1  0
 14 15  1  0
 15 16  1  0
 16 17  2  0
 16 18  1  0
 18 19  1  0
 19 20  1  0
 20 21  2  0
 21 22  1  0
 21 23  1  0
 23 24  1  0
 24 25  2  0
 24 26  1  0
 26 27  1  0
 27 28  2  0
 12  7  1  0
 27 20  1  0
  1 29  1  0
  1 30  1  0
  1 31  1  0
  2 32  1  0
  2 33  1  0
  6 34  1  0
  9 35  1  0
  9 36  1  0
 13 37  1  0
 13 38  1  0
 14 39  1  0
 14 40  1  0
 18 41  1  0
 18 42  1  0
 19 43  1  0
 19 44  1  0
 22 45  1  0
 22 46  1  0
 22 47  1  0
 23 48  1  0
 26 49  1  0
M  END
>  <Unnamed: 0>  (126) 
710

>  <ID>  (126) 
TRAIN_0710

>  <Canonical_Smiles>  (126) 
CCOC(=O)\C=C/1\SCC(=O)N1CCOC(=O)CCC2=C(C)NC(=O)NC2=O

>  <Inhibition>  (126) 
34.126088

>  <TDC_conf_true_inhibitor>  (126) 
0

>  <TDC_conf_non_inhibitor>  (126) 
1

>  <split>  (126) 
1

$$$$
126
     RDKit          3D

 40 43  0  0  0  0  0  0  0  0999 V2000
    5.0175   -0.7429    0.7075 C   0  0  0  0  0  0  0  0  0  0  0  0
    3.8205   -2.1000    0.6918 S   0  0  0  0  0  0  0  0  0  0  0  0
    2.3089   -1.2417    0.0821 C   0  0  0  0  0  0  0  0  0  0  0  0
    2.4263   -0.8128   -1.4024 C   0  0  0  0  0  0  0  0  0  0  0  0
    1.8388    0.5737   -1.7102 C   0  0  0  0  0  0  0  0  0  0  0  0
    2.8094    1.6859   -1.3129 C   0  0  0  0  0  0  0  0  0  0  0  0
    2.4490    2.0141    0.1349 C   0  0  0  0  0  0  0  0  0  0  0  0
    1.2645    1.0962    0.4677 C   0  0  0  0  0  0  0  0  0  0  0  0
    1.7504   -0.2158    1.1004 C   0  0  0  0  0  0  0  0  0  0  0  0
    0.7033    0.7994   -0.8392 N   0  0  0  0  0  0  0  0  0  0  0  0
   -0.5522    0.2986   -1.1780 C   0  0  0  0  0  0  0  0  0  0  0  0
   -0.7432   -0.1576   -2.3089 O   0  0  0  0  0  0  0  0  0  0  0  0
   -1.6595    0.2992   -0.2084 C   0  0  0  0  0  0  0  0  0  0  0  0
   -2.9674   -0.2045   -0.4637 C   0  0  0  0  0  0  0  0  0  0  0  0
   -3.6636   -0.0079    0.7011 C   0  0  0  0  0  0  0  0  0  0  0  0
   -2.8372    0.5771    1.6071 O   0  0  0  0  0  0  0  0  0  0  0  0
   -1.5917    0.7703    1.0464 N   0  0  0  0  0  0  0  0  0  0  0  0
   -5.1433   -0.3685    1.0004 C   0  0  0  0  0  0  0  0  0  0  0  0
   -5.7543   -1.6125    0.4117 C   0  0  0  0  0  0  0  0  0  0  0  0
   -6.1848   -0.2598   -0.0816 C   0  0  0  0  0  0  0  0  0  0  0  0
    5.9853   -1.1351    1.0326 H   0  0  0  0  0  0  0  0  0  0  0  0
    5.1458   -0.3176   -0.2895 H   0  0  0  0  0  0  0  0  0  0  0  0
    4.7188    0.0362    1.4111 H   0  0  0  0  0  0  0  0  0  0  0  0
    1.5745   -2.0597    0.0791 H   0  0  0  0  0  0  0  0  0  0  0  0
    3.4518   -0.8732   -1.7840 H   0  0  0  0  0  0  0  0  0  0  0  0
    1.8627   -1.5489   -1.9938 H   0  0  0  0  0  0  0  0  0  0  0  0
    1.5685    0.6452   -2.7691 H   0  0  0  0  0  0  0  0  0  0  0  0
    2.6327    2.5733   -1.9332 H   0  0  0  0  0  0  0  0  0  0  0  0
    3.8614    1.4126   -1.4349 H   0  0  0  0  0  0  0  0  0  0  0  0
    2.1350    3.0638    0.1933 H   0  0  0  0  0  0  0  0  0  0  0  0
    3.2956    1.8958    0.8169 H   0  0  0  0  0  0  0  0  0  0  0  0
    0.5774    1.6218    1.1310 H   0  0  0  0  0  0  0  0  0  0  0  0
    0.8902   -0.6895    1.5939 H   0  0  0  0  0  0  0  0  0  0  0  0
    2.4531    0.0032    1.9122 H   0  0  0  0  0  0  0  0  0  0  0  0
   -3.3259   -0.6460   -1.3817 H   0  0  0  0  0  0  0  0  0  0  0  0
   -5.4563   -0.1014    2.0058 H   0  0  0  0  0  0  0  0  0  0  0  0
   -5.1606   -2.2318   -0.2503 H   0  0  0  0  0  0  0  0  0  0  0  0
   -6.4481   -2.1731    1.0284 H   0  0  0  0  0  0  0  0  0  0  0  0
   -7.1699    0.0944    0.2016 H   0  0  0  0  0  0  0  0  0  0  0  0
   -5.8837    0.0395   -1.0785 H   0  0  0  0  0  0  0  0  0  0  0  0
  1  2  1  0
  2  3  1  0
  3  4  1  0
  4  5  1  0
  5  6  1  0
  6  7  1  0
  7  8  1  0
  8  9  1  0
  8 10  1  0
 10 11  1  0
 11 12  2  0
 11 13  1  0
 13 14  1  0
 14 15  2  0
 15 16  1  0
 16 17  1  0
 15 18  1  0
 18 19  1  0
 19 20  1  0
  9  3  1  0
 10  5  1  0
 17 13  2  0
 20 18  1  0
  1 21  1  0
  1 22  1  0
  1 23  1  0
  3 24  1  0
  4 25  1  0
  4 26  1  0
  5 27  1  0
  6 28  1  0
  6 29  1  0
  7 30  1  0
  7 31  1  0
  8 32  1  0
  9 33  1  0
  9 34  1  0
 14 35  1  0
 18 36  1  0
 19 37  1  0
 19 38  1  0
 20 39  1  0
 20 40  1  0
M  END
>  <Unnamed: 0>  (127) 
717

>  <ID>  (127) 
TRAIN_0717

>  <Canonical_Smiles>  (127) 
CSC1CC2CCC(C1)N2C(=O)c3cc(on3)C4CC4

>  <Inhibition>  (127) 
11.052238

>  <TDC_conf_true_inhibitor>  (127) 
0

>  <TDC_conf_non_inhibitor>  (127) 
1

>  <split>  (127) 
1

$$$$
127
     RDKit          3D

 55 59  0  0  0  0  0  0  0  0999 V2000
   -1.6965   -2.1956    1.7993 C   0  0  0  0  0  0  0  0  0  0  0  0
   -1.7751   -1.0298    0.8838 C   0  0  0  0  0  0  0  0  0  0  0  0
   -2.1041    0.1618    1.3777 N   0  0  0  0  0  0  0  0  0  0  0  0
   -2.0432    1.0351    0.3342 N   0  0  0  0  0  0  0  0  0  0  0  0
   -1.8119    0.3544   -0.8655 C   0  0  0  0  0  0  0  0  0  0  0  0
   -1.8735    0.9637   -2.2213 C   0  0  0  0  0  0  0  0  0  0  0  0
   -1.5700   -0.9653   -0.5092 C   0  0  0  0  0  0  0  0  0  0  0  0
   -1.2212   -2.0453   -1.3999 C   0  0  0  0  0  0  0  0  0  0  0  0
   -2.1416   -2.6367   -2.1970 C   0  0  0  0  0  0  0  0  0  0  0  0
   -3.5107   -2.2440   -2.2052 C   0  0  0  0  0  0  0  0  0  0  0  0
   -4.6181   -1.8955   -2.2010 N   0  0  0  0  0  0  0  0  0  0  0  0
   -1.7711   -3.7331   -3.1189 C   0  0  0  0  0  0  0  0  0  0  0  0
   -2.5949   -4.2624   -3.8573 O   0  0  0  0  0  0  0  0  0  0  0  0
   -0.4667   -4.1388   -3.1287 O   0  0  0  0  0  0  0  0  0  0  0  0
    0.4522   -3.5408   -2.2696 C   0  0  0  0  0  0  0  0  0  0  0  0
    0.1653   -2.5426   -1.4229 C   0  0  0  0  0  0  0  0  0  0  0  0
    1.1859   -2.0358   -0.5494 C   0  0  0  0  0  0  0  0  0  0  0  0
    1.7162   -2.7164    0.5574 C   0  0  0  0  0  0  0  0  0  0  0  0
    2.6721   -1.9049    1.1286 C   0  0  0  0  0  0  0  0  0  0  0  0
    3.5017   -2.2184    2.3301 C   0  0  0  0  0  0  0  0  0  0  0  0
    2.7163   -0.6805    0.4365 N   0  0  0  0  0  0  0  0  0  0  0  0
    1.8679   -0.8358   -0.6829 C   0  0  0  0  0  0  0  0  0  0  0  0
    1.7788    0.1263   -1.8216 C   0  0  0  0  0  0  0  0  0  0  0  0
    3.4927    0.4379    0.8496 C   0  0  0  0  0  0  0  0  0  0  0  0
    4.3997    0.3669    1.8043 N   0  0  0  0  0  0  0  0  0  0  0  0
    4.9584    1.6104    2.0191 C   0  0  0  0  0  0  0  0  0  0  0  0
    4.4592    2.6242    1.2331 C   0  0  0  0  0  0  0  0  0  0  0  0
    3.2524    1.9961    0.1953 S   0  0  0  0  0  0  0  0  0  0  0  0
   -2.2096    2.4312    0.6122 C   0  0  0  0  0  0  0  0  0  0  0  0
   -1.8775    3.4374   -0.3019 C   0  0  0  0  0  0  0  0  0  0  0  0
   -2.0571    4.7864    0.0293 C   0  0  0  0  0  0  0  0  0  0  0  0
   -2.5598    5.1465    1.2767 C   0  0  0  0  0  0  0  0  0  0  0  0
   -2.8769    4.1590    2.2031 C   0  0  0  0  0  0  0  0  0  0  0  0
   -2.6982    2.8121    1.8765 C   0  0  0  0  0  0  0  0  0  0  0  0
   -2.5843   -2.2440    2.4385 H   0  0  0  0  0  0  0  0  0  0  0  0
   -0.8146   -2.1145    2.4425 H   0  0  0  0  0  0  0  0  0  0  0  0
   -1.6333   -3.1397    1.2502 H   0  0  0  0  0  0  0  0  0  0  0  0
   -0.9564    1.5142   -2.4472 H   0  0  0  0  0  0  0  0  0  0  0  0
   -2.7390    1.6256   -2.3216 H   0  0  0  0  0  0  0  0  0  0  0  0
   -1.9768    0.2020   -3.0000 H   0  0  0  0  0  0  0  0  0  0  0  0
    1.4254   -4.0038   -2.3808 H   0  0  0  0  0  0  0  0  0  0  0  0
    1.4407   -3.7009    0.9160 H   0  0  0  0  0  0  0  0  0  0  0  0
    3.2789   -1.5327    3.1533 H   0  0  0  0  0  0  0  0  0  0  0  0
    3.2895   -3.2319    2.6887 H   0  0  0  0  0  0  0  0  0  0  0  0
    4.5691   -2.1793    2.0924 H   0  0  0  0  0  0  0  0  0  0  0  0
    1.2186    1.0208   -1.5390 H   0  0  0  0  0  0  0  0  0  0  0  0
    2.7736    0.4027   -2.1840 H   0  0  0  0  0  0  0  0  0  0  0  0
    1.2586   -0.3181   -2.6769 H   0  0  0  0  0  0  0  0  0  0  0  0
    5.7298    1.7234    2.7713 H   0  0  0  0  0  0  0  0  0  0  0  0
    4.7333    3.6693    1.2251 H   0  0  0  0  0  0  0  0  0  0  0  0
   -1.4411    3.2309   -1.2687 H   0  0  0  0  0  0  0  0  0  0  0  0
   -1.7941    5.5596   -0.6888 H   0  0  0  0  0  0  0  0  0  0  0  0
   -2.6971    6.1946    1.5292 H   0  0  0  0  0  0  0  0  0  0  0  0
   -3.2633    4.4309    3.1819 H   0  0  0  0  0  0  0  0  0  0  0  0
   -2.9585    2.0633    2.6234 H   0  0  0  0  0  0  0  0  0  0  0  0
  1  2  1  0
  2  3  2  0
  3  4  1  0
  4  5  1  0
  5  6  1  0
  5  7  2  0
  7  8  1  0
  8  9  2  0
  9 10  1  0
 10 11  3  0
  9 12  1  0
 12 13  2  0
 12 14  1  0
 14 15  1  0
 15 16  2  0
 16 17  1  0
 17 18  1  0
 18 19  2  0
 19 20  1  0
 19 21  1  0
 21 22  1  0
 22 23  1  0
 21 24  1  0
 24 25  2  0
 25 26  1  0
 26 27  2  0
 27 28  1  0
  4 29  1  0
 29 30  2  0
 30 31  1  0
 31 32  2  0
 32 33  1  0
 33 34  2  0
  7  2  1  0
 16  8  1  0
 22 17  2  0
 28 24  1  0
 34 29  1  0
  1 35  1  0
  1 36  1  0
  1 37  1  0
  6 38  1  0
  6 39  1  0
  6 40  1  0
 15 41  1  0
 18 42  1  0
 20 43  1  0
 20 44  1  0
 20 45  1  0
 23 46  1  0
 23 47  1  0
 23 48  1  0
 26 49  1  0
 27 50  1  0
 30 51  1  0
 31 52  1  0
 32 53  1  0
 33 54  1  0
 34 55  1  0
M  END
>  <Unnamed: 0>  (128) 
718

>  <ID>  (128) 
TRAIN_0718

>  <Canonical_Smiles>  (128) 
Cc1nn(c(C)c1C2=C(C#N)C(=O)OC=C2c3cc(C)n(c3C)c4nccs4)c5ccccc5

>  <Inhibition>  (128) 
76.519639

>  <TDC_conf_true_inhibitor>  (128) 
1

>  <TDC_conf_non_inhibitor>  (128) 
0

>  <split>  (128) 
1

$$$$
128
     RDKit          3D

 58 59  0  0  0  0  0  0  0  0999 V2000
    6.9534   -0.5856    1.0161 C   0  0  0  0  0  0  0  0  0  0  0  0
    5.5256   -0.5672    1.0214 O   0  0  0  0  0  0  0  0  0  0  0  0
    4.9647   -0.5044   -0.2222 C   0  0  0  0  0  0  0  0  0  0  0  0
    5.6182   -0.4535   -1.2598 O   0  0  0  0  0  0  0  0  0  0  0  0
    3.3991   -0.5495   -0.1576 C   0  0  0  0  0  0  0  0  0  0  0  0
    2.8839    0.4471   -1.2257 C   0  0  0  0  0  0  0  0  0  0  0  0
    3.1051    1.8285   -0.6112 C   0  0  0  0  0  0  0  0  0  0  0  0
    3.0391    1.6274    0.8998 C   0  0  0  0  0  0  0  0  0  0  0  0
    2.8565    0.1255    1.1228 C   0  0  0  0  0  0  0  0  0  0  0  0
    3.0236   -1.9769   -0.3376 N   0  0  0  0  0  0  0  0  0  0  0  0
    3.1164   -2.7934    0.8697 C   0  0  0  0  0  0  0  0  0  0  0  0
    1.8331   -2.2877   -1.1297 C   0  0  0  0  0  0  0  0  0  0  0  0
    0.5661   -1.9043   -0.4920 C   0  0  0  0  0  0  0  0  0  0  0  0
   -0.4653   -1.5530    0.0161 C   0  0  0  0  0  0  0  0  0  0  0  0
   -1.7130   -1.0785    0.6384 C   0  0  0  0  0  0  0  0  0  0  0  0
   -2.1819    0.1546   -0.0139 N   0  0  0  0  0  0  0  0  0  0  0  0
   -1.3681    1.2966    0.4299 C   0  0  0  0  0  0  0  0  0  0  0  0
   -3.6499    0.4145    0.1300 C   0  0  0  0  0  0  0  0  0  0  0  0
   -4.1095    0.5869    1.6027 C   0  0  0  0  0  0  0  0  0  0  0  0
   -5.5372    0.0576    1.6253 C   0  0  0  0  0  0  0  0  0  0  0  0
   -5.4550   -1.1642    0.7291 C   0  0  0  0  0  0  0  0  0  0  0  0
   -4.5612   -0.7236   -0.4281 C   0  0  0  0  0  0  0  0  0  0  0  0
   -4.0325    1.6883   -0.6930 C   0  0  0  0  0  0  0  0  0  0  0  0
   -4.6203    2.6642   -0.2422 O   0  0  0  0  0  0  0  0  0  0  0  0
   -3.6314    1.5688   -1.9955 O   0  0  0  0  0  0  0  0  0  0  0  0
   -3.9350    2.6906   -2.8243 C   0  0  0  0  0  0  0  0  0  0  0  0
    7.3473    0.3399    0.5808 H   0  0  0  0  0  0  0  0  0  0  0  0
    7.3255   -1.4616    0.4749 H   0  0  0  0  0  0  0  0  0  0  0  0
    7.2931   -0.6530    2.0526 H   0  0  0  0  0  0  0  0  0  0  0  0
    3.3858    0.3558   -2.1941 H   0  0  0  0  0  0  0  0  0  0  0  0
    1.8093    0.3396   -1.4032 H   0  0  0  0  0  0  0  0  0  0  0  0
    2.3520    2.5429   -0.9578 H   0  0  0  0  0  0  0  0  0  0  0  0
    4.0861    2.2244   -0.8959 H   0  0  0  0  0  0  0  0  0  0  0  0
    2.2136    2.1917    1.3460 H   0  0  0  0  0  0  0  0  0  0  0  0
    3.9655    1.9788    1.3660 H   0  0  0  0  0  0  0  0  0  0  0  0
    3.3485   -0.1938    2.0467 H   0  0  0  0  0  0  0  0  0  0  0  0
    1.7869   -0.0768    1.2490 H   0  0  0  0  0  0  0  0  0  0  0  0
    3.0192   -3.8572    0.6243 H   0  0  0  0  0  0  0  0  0  0  0  0
    2.3441   -2.5475    1.6058 H   0  0  0  0  0  0  0  0  0  0  0  0
    4.0922   -2.6889    1.3524 H   0  0  0  0  0  0  0  0  0  0  0  0
    1.8115   -3.3666   -1.3314 H   0  0  0  0  0  0  0  0  0  0  0  0
    1.9102   -1.8329   -2.1251 H   0  0  0  0  0  0  0  0  0  0  0  0
   -2.4384   -1.8915    0.5484 H   0  0  0  0  0  0  0  0  0  0  0  0
   -1.5544   -0.9286    1.7133 H   0  0  0  0  0  0  0  0  0  0  0  0
   -1.6119    2.2083   -0.1237 H   0  0  0  0  0  0  0  0  0  0  0  0
   -0.3048    1.1223    0.2403 H   0  0  0  0  0  0  0  0  0  0  0  0
   -1.4890    1.5025    1.4996 H   0  0  0  0  0  0  0  0  0  0  0  0
   -3.5130   -0.0225    2.2913 H   0  0  0  0  0  0  0  0  0  0  0  0
   -4.0553    1.6193    1.9632 H   0  0  0  0  0  0  0  0  0  0  0  0
   -6.2318    0.7962    1.2083 H   0  0  0  0  0  0  0  0  0  0  0  0
   -5.8692   -0.1932    2.6374 H   0  0  0  0  0  0  0  0  0  0  0  0
   -4.9878   -1.9982    1.2667 H   0  0  0  0  0  0  0  0  0  0  0  0
   -6.4404   -1.4939    0.3870 H   0  0  0  0  0  0  0  0  0  0  0  0
   -5.1981   -0.3661   -1.2476 H   0  0  0  0  0  0  0  0  0  0  0  0
   -4.0093   -1.5743   -0.8395 H   0  0  0  0  0  0  0  0  0  0  0  0
   -3.7338    3.6410   -2.3161 H   0  0  0  0  0  0  0  0  0  0  0  0
   -4.9795    2.6356   -3.1392 H   0  0  0  0  0  0  0  0  0  0  0  0
   -3.2987    2.6392   -3.7129 H   0  0  0  0  0  0  0  0  0  0  0  0
  1  2  1  0
  2  3  1  0
  3  4  2  0
  3  5  1  0
  5  6  1  0
  6  7  1  0
  7  8  1  0
  8  9  1  0
  5 10  1  0
 10 11  1  0
 10 12  1  0
 12 13  1  0
 13 14  3  0
 14 15  1  0
 15 16  1  0
 16 17  1  0
 16 18  1  0
 18 19  1  0
 19 20  1  0
 20 21  1  0
 21 22  1  0
 18 23  1  0
 23 24  2  0
 23 25  1  0
 25 26  1  0
  9  5  1  0
 22 18  1  0
  1 27  1  0
  1 28  1  0
  1 29  1  0
  6 30  1  0
  6 31  1  0
  7 32  1  0
  7 33  1  0
  8 34  1  0
  8 35  1  0
  9 36  1  0
  9 37  1  0
 11 38  1  0
 11 39  1  0
 11 40  1  0
 12 41  1  0
 12 42  1  0
 15 43  1  0
 15 44  1  0
 17 45  1  0
 17 46  1  0
 17 47  1  0
 19 48  1  0
 19 49  1  0
 20 50  1  0
 20 51  1  0
 21 52  1  0
 21 53  1  0
 22 54  1  0
 22 55  1  0
 26 56  1  0
 26 57  1  0
 26 58  1  0
M  END
>  <Unnamed: 0>  (129) 
724

>  <ID>  (129) 
TRAIN_0724

>  <Canonical_Smiles>  (129) 
COC(=O)C1(CCCC1)N(C)CC#CCN(C)C2(CCCC2)C(=O)OC

>  <Inhibition>  (129) 
46.241509

>  <TDC_conf_true_inhibitor>  (129) 
0

>  <TDC_conf_non_inhibitor>  (129) 
1

>  <split>  (129) 
1

$$$$
129
     RDKit          3D

 48 50  0  0  0  0  0  0  0  0999 V2000
    6.5215    1.5090   -2.8678 Cl  0  0  0  0  0  0  0  0  0  0  0  0
    5.2508    0.5486   -2.1874 C   0  0  0  0  0  0  0  0  0  0  0  0
    4.2501    0.1345   -3.0811 C   0  0  0  0  0  0  0  0  0  0  0  0
    3.1751   -0.6334   -2.6371 C   0  0  0  0  0  0  0  0  0  0  0  0
    3.0998   -0.9835   -1.2907 C   0  0  0  0  0  0  0  0  0  0  0  0
    4.1015   -0.5893   -0.3962 C   0  0  0  0  0  0  0  0  0  0  0  0
    5.1943    0.1924   -0.8247 C   0  0  0  0  0  0  0  0  0  0  0  0
    6.1811    0.5754    0.1918 C   0  0  0  0  0  0  0  0  0  0  0  0
    6.0889    0.3732    1.4958 N   0  0  0  0  0  0  0  0  0  0  0  0
    7.2305    0.8832    2.0614 N   0  0  0  0  0  0  0  0  0  0  0  0
    8.0258    1.3960    1.1369 N   0  0  0  0  0  0  0  0  0  0  0  0
    7.3796    1.2044   -0.0185 N   0  0  0  0  0  0  0  0  0  0  0  0
    1.7507   -1.9905   -0.7225 S   0  0  0  0  0  6  0  0  0  0  0  0
    2.1265   -2.5999    0.5317 O   0  0  0  0  0  0  0  0  0  0  0  0
    1.2964   -2.7798   -1.8458 O   0  0  0  0  0  0  0  0  0  0  0  0
    0.5642   -0.8578   -0.4359 N   0  0  0  0  0  0  0  0  0  0  0  0
    0.5695   -0.0159    0.7584 C   0  0  0  0  0  0  0  0  0  0  0  0
   -0.2054   -0.6571    1.9064 C   0  0  0  0  0  0  0  0  0  0  0  0
   -1.6759   -0.9115    1.5931 C   0  0  0  0  0  0  0  0  0  0  0  0
   -2.2883    0.3111    1.1884 O   0  0  0  0  0  0  0  0  0  0  0  0
   -3.6812    0.1809    0.8889 C   0  0  0  0  0  0  0  0  0  0  0  0
   -4.3102    1.5751    1.0313 C   0  0  0  0  0  0  0  0  0  0  0  0
   -5.5877    1.7672    0.2119 C   0  0  0  0  0  0  0  0  0  0  0  0
   -6.2825    0.4470   -0.0879 C   0  0  0  0  0  0  0  0  0  0  0  0
   -5.3762   -0.5044   -0.8700 C   0  0  0  0  0  0  0  0  0  0  0  0
   -3.8927   -0.3582   -0.5263 C   0  0  0  0  0  0  0  0  0  0  0  0
    4.3036    0.4083   -4.1333 H   0  0  0  0  0  0  0  0  0  0  0  0
    2.4087   -0.9538   -3.3406 H   0  0  0  0  0  0  0  0  0  0  0  0
    4.0310   -0.8938    0.6494 H   0  0  0  0  0  0  0  0  0  0  0  0
    7.7956    1.5213   -0.8854 H   0  0  0  0  0  0  0  0  0  0  0  0
   -0.2890   -0.9450   -0.9853 H   0  0  0  0  0  0  0  0  0  0  0  0
    0.1372    0.9553    0.4940 H   0  0  0  0  0  0  0  0  0  0  0  0
    1.5967    0.1847    1.0794 H   0  0  0  0  0  0  0  0  0  0  0  0
    0.2633   -1.6005    2.2069 H   0  0  0  0  0  0  0  0  0  0  0  0
   -0.1434    0.0214    2.7662 H   0  0  0  0  0  0  0  0  0  0  0  0
   -1.7693   -1.6657    0.8058 H   0  0  0  0  0  0  0  0  0  0  0  0
   -2.1754   -1.2881    2.4929 H   0  0  0  0  0  0  0  0  0  0  0  0
   -4.1512   -0.4912    1.6193 H   0  0  0  0  0  0  0  0  0  0  0  0
   -3.5893    2.3576    0.7611 H   0  0  0  0  0  0  0  0  0  0  0  0
   -4.5273    1.7446    2.0941 H   0  0  0  0  0  0  0  0  0  0  0  0
   -5.3356    2.2610   -0.7349 H   0  0  0  0  0  0  0  0  0  0  0  0
   -6.2681    2.4425    0.7425 H   0  0  0  0  0  0  0  0  0  0  0  0
   -6.5790   -0.0264    0.8568 H   0  0  0  0  0  0  0  0  0  0  0  0
   -7.2059    0.6221   -0.6515 H   0  0  0  0  0  0  0  0  0  0  0  0
   -5.5047   -0.3384   -1.9465 H   0  0  0  0  0  0  0  0  0  0  0  0
   -5.7014   -1.5342   -0.6792 H   0  0  0  0  0  0  0  0  0  0  0  0
   -3.4128    0.3226   -1.2421 H   0  0  0  0  0  0  0  0  0  0  0  0
   -3.3900   -1.3209   -0.6690 H   0  0  0  0  0  0  0  0  0  0  0  0
  1  2  1  0
  2  3  2  0
  3  4  1  0
  4  5  2  0
  5  6  1  0
  6  7  2  0
  7  8  1  0
  8  9  2  0
  9 10  1  0
 10 11  2  0
 11 12  1  0
  5 13  1  0
 13 14  2  0
 13 15  2  0
 13 16  1  0
 16 17  1  0
 17 18  1  0
 18 19  1  0
 19 20  1  0
 20 21  1  0
 21 22  1  0
 22 23  1  0
 23 24  1  0
 24 25  1  0
 25 26  1  0
  7  2  1  0
 12  8  1  0
 26 21  1  0
  3 27  1  0
  4 28  1  0
  6 29  1  0
 12 30  1  0
 16 31  1  0
 17 32  1  0
 17 33  1  0
 18 34  1  0
 18 35  1  0
 19 36  1  0
 19 37  1  0
 21 38  1  0
 22 39  1  0
 22 40  1  0
 23 41  1  0
 23 42  1  0
 24 43  1  0
 24 44  1  0
 25 45  1  0
 25 46  1  0
 26 47  1  0
 26 48  1  0
M  END
>  <Unnamed: 0>  (130) 
741

>  <ID>  (130) 
TRAIN_0741

>  <Canonical_Smiles>  (130) 
Clc1ccc(cc1c2nnn[nH]2)S(=O)(=O)NCCCOC3CCCCC3

>  <Inhibition>  (130) 
63.075239

>  <TDC_conf_true_inhibitor>  (130) 
1

>  <TDC_conf_non_inhibitor>  (130) 
0

>  <split>  (130) 
1

$$$$
130
     RDKit          3D

 32 33  0  0  0  0  0  0  0  0999 V2000
   -3.1396    1.4195   -1.6923 C   0  0  0  0  0  0  0  0  0  0  0  0
   -3.2539    0.0231   -1.4543 O   0  0  0  0  0  0  0  0  0  0  0  0
   -2.9990   -0.4039   -0.0908 C   0  0  0  0  0  0  0  0  0  0  0  0
   -4.0241    0.2418    0.8597 C   0  0  0  0  0  0  0  0  0  0  0  0
   -3.2599   -1.9219   -0.1088 C   0  0  0  0  0  0  0  0  0  0  0  0
   -1.5649   -0.1681    0.3417 C   0  0  0  0  0  0  0  0  0  0  0  0
   -1.2199    0.1879    1.5888 N   0  0  0  0  0  0  0  0  0  0  0  0
    0.1723    0.2773    1.5301 O   0  0  0  0  0  0  0  0  0  0  0  0
    0.5304   -0.0403    0.2516 C   0  0  0  0  0  0  0  0  0  0  0  0
   -0.4988   -0.3235   -0.5196 N   0  0  0  0  0  0  0  0  0  0  0  0
    1.9242   -0.0397   -0.1287 C   0  0  0  0  0  0  0  0  0  0  0  0
    2.8297    0.2727    0.7506 N   0  0  0  0  0  0  0  0  0  0  0  0
    4.1535    0.2647    0.3568 N   0  0  0  0  0  0  0  0  0  0  0  0
    5.1132    0.6247    1.3852 C   0  0  0  0  0  0  0  0  0  0  0  0
    4.5865   -0.0525   -0.9239 C   0  0  0  0  0  0  0  0  0  0  0  0
    5.7550   -0.0624   -1.2995 O   0  0  0  0  0  0  0  0  0  0  0  0
    3.5259   -0.4027   -1.8909 C   0  0  0  0  0  0  0  0  0  0  0  0
    2.2422   -0.4028   -1.5302 C   0  0  0  0  0  0  0  0  0  0  0  0
   -2.1752    1.8126   -1.3601 H   0  0  0  0  0  0  0  0  0  0  0  0
   -3.2194    1.5833   -2.7708 H   0  0  0  0  0  0  0  0  0  0  0  0
   -3.9572    1.9637   -1.2123 H   0  0  0  0  0  0  0  0  0  0  0  0
   -3.8372    1.3143    0.9863 H   0  0  0  0  0  0  0  0  0  0  0  0
   -5.0412    0.1406    0.4640 H   0  0  0  0  0  0  0  0  0  0  0  0
   -3.9959   -0.2123    1.8568 H   0  0  0  0  0  0  0  0  0  0  0  0
   -4.2829   -2.1398   -0.4376 H   0  0  0  0  0  0  0  0  0  0  0  0
   -3.1079   -2.3742    0.8776 H   0  0  0  0  0  0  0  0  0  0  0  0
   -2.5926   -2.4260   -0.8187 H   0  0  0  0  0  0  0  0  0  0  0  0
    6.1403    0.5817    1.0142 H   0  0  0  0  0  0  0  0  0  0  0  0
    4.8977    1.6423    1.7241 H   0  0  0  0  0  0  0  0  0  0  0  0
    5.0065   -0.0700    2.2236 H   0  0  0  0  0  0  0  0  0  0  0  0
    3.8495   -0.6549   -2.8926 H   0  0  0  0  0  0  0  0  0  0  0  0
    1.4426   -0.6550   -2.2150 H   0  0  0  0  0  0  0  0  0  0  0  0
  1  2  1  0
  2  3  1  0
  3  4  1  0
  3  5  1  0
  3  6  1  0
  6  7  2  0
  7  8  1  0
  8  9  1  0
  9 10  2  0
  9 11  1  0
 11 12  2  0
 12 13  1  0
 13 14  1  0
 13 15  1  0
 15 16  2  0
 15 17  1  0
 17 18  2  0
 10  6  1  0
 18 11  1  0
  1 19  1  0
  1 20  1  0
  1 21  1  0
  4 22  1  0
  4 23  1  0
  4 24  1  0
  5 25  1  0
  5 26  1  0
  5 27  1  0
 14 28  1  0
 14 29  1  0
 14 30  1  0
 17 31  1  0
 18 32  1  0
M  END
>  <Unnamed: 0>  (131) 
744

>  <ID>  (131) 
TRAIN_0744

>  <Canonical_Smiles>  (131) 
COC(C)(C)c1noc(n1)C2=NN(C)C(=O)C=C2

>  <Inhibition>  (131) 
36.964717

>  <TDC_conf_true_inhibitor>  (131) 
0

>  <TDC_conf_non_inhibitor>  (131) 
1

>  <split>  (131) 
1

$$$$
131
     RDKit          3D

 47 51  0  0  0  0  0  0  0  0999 V2000
   -0.2388   -0.1722    2.4647 C   0  0  0  0  0  0  0  0  0  0  0  0
   -0.2143   -0.2135    0.9724 C   0  0  0  0  0  0  0  0  0  0  0  0
   -1.3561   -0.1721    0.1169 C   0  0  0  0  0  0  0  0  0  0  0  0
   -2.7281   -0.1015    0.5068 C   0  0  0  0  0  0  0  0  0  0  0  0
   -3.3845    1.0603    0.6706 C   0  0  0  0  0  0  0  0  0  0  0  0
   -4.8277    1.1426    1.0705 C   0  0  0  0  0  0  0  0  0  0  0  0
   -5.5579   -0.1983    0.9756 C   0  0  0  0  0  0  0  0  0  0  0  0
   -4.6966   -1.3369    1.5131 C   0  0  0  0  0  0  0  0  0  0  0  0
   -3.3761   -1.4441    0.7432 C   0  0  0  0  0  0  0  0  0  0  0  0
   -0.9171   -0.2207   -1.1883 C   0  0  0  0  0  0  0  0  0  0  0  0
   -1.5711   -0.2311   -2.4576 C   0  0  0  0  0  0  0  0  0  0  0  0
   -0.8617   -0.4896   -3.5712 C   0  0  0  0  0  0  0  0  0  0  0  0
    0.5584   -0.7759   -3.5093 C   0  0  0  0  0  0  0  0  0  0  0  0
    1.1849   -0.7017   -2.3235 C   0  0  0  0  0  0  0  0  0  0  0  0
    0.4691   -0.3582   -1.1693 N   0  0  0  0  0  0  0  0  0  0  0  0
    0.9045   -0.2027    0.1382 C   0  0  0  0  0  0  0  0  0  0  0  0
    2.4081   -0.0729    0.6421 C   0  0  0  0  0  0  0  0  0  0  0  0
    2.7008   -0.4711    1.8953 N   0  0  0  0  0  0  0  0  0  0  0  0
    4.2480   -0.3175    1.9460 S   0  0  0  0  0  6  0  0  0  0  0  0
    4.8880   -1.7970    2.0542 O   0  0  0  0  0  0  0  0  0  0  0  0
    4.7617    0.3601    3.3086 O   0  0  0  0  0  0  0  0  0  0  0  0
    4.7687    0.3920    0.5962 C   0  0  0  0  0  0  0  0  0  0  0  0
    6.0047    0.8507    0.1220 C   0  0  0  0  0  0  0  0  0  0  0  0
    6.0371    1.4877   -1.1189 C   0  0  0  0  0  0  0  0  0  0  0  0
    4.8698    1.6808   -1.8479 C   0  0  0  0  0  0  0  0  0  0  0  0
    3.6374    1.2201   -1.3659 C   0  0  0  0  0  0  0  0  0  0  0  0
    3.5592    0.5187   -0.1346 C   0  0  0  0  0  0  0  0  0  0  0  0
    0.1927   -1.0887    2.8793 H   0  0  0  0  0  0  0  0  0  0  0  0
    0.3242    0.6895    2.8374 H   0  0  0  0  0  0  0  0  0  0  0  0
   -1.2574   -0.0873    2.8553 H   0  0  0  0  0  0  0  0  0  0  0  0
   -2.8646    2.0026    0.5133 H   0  0  0  0  0  0  0  0  0  0  0  0
   -4.8787    1.5186    2.0993 H   0  0  0  0  0  0  0  0  0  0  0  0
   -5.3406    1.8740    0.4357 H   0  0  0  0  0  0  0  0  0  0  0  0
   -5.8158   -0.4023   -0.0716 H   0  0  0  0  0  0  0  0  0  0  0  0
   -6.5014   -0.1445    1.5302 H   0  0  0  0  0  0  0  0  0  0  0  0
   -5.2410   -2.2854    1.4431 H   0  0  0  0  0  0  0  0  0  0  0  0
   -4.4891   -1.1658    2.5772 H   0  0  0  0  0  0  0  0  0  0  0  0
   -3.5648   -1.9211   -0.2274 H   0  0  0  0  0  0  0  0  0  0  0  0
   -2.7065   -2.1087    1.3034 H   0  0  0  0  0  0  0  0  0  0  0  0
   -2.6388   -0.0412   -2.5089 H   0  0  0  0  0  0  0  0  0  0  0  0
   -1.3447   -0.5104   -4.5433 H   0  0  0  0  0  0  0  0  0  0  0  0
    1.0782   -1.0595   -4.4178 H   0  0  0  0  0  0  0  0  0  0  0  0
    2.2335   -0.9420   -2.2208 H   0  0  0  0  0  0  0  0  0  0  0  0
    6.9097    0.7253    0.7113 H   0  0  0  0  0  0  0  0  0  0  0  0
    6.9844    1.8576   -1.5078 H   0  0  0  0  0  0  0  0  0  0  0  0
    4.9096    2.2108   -2.7982 H   0  0  0  0  0  0  0  0  0  0  0  0
    2.7408    1.4425   -1.9395 H   0  0  0  0  0  0  0  0  0  0  0  0
  1  2  1  0
  2  3  1  0
  3  4  1  0
  4  5  2  0
  5  6  1  0
  6  7  1  0
  7  8  1  0
  8  9  1  0
  3 10  2  0
 10 11  1  0
 11 12  2  0
 12 13  1  0
 13 14  2  0
 14 15  1  0
 15 16  1  0
 16 17  1  0
 17 18  2  0
 18 19  1  0
 19 20  2  0
 19 21  2  0
 19 22  1  0
 22 23  2  0
 23 24  1  0
 24 25  2  0
 25 26  1  0
 26 27  2  0
 16  2  2  0
  9  4  1  0
 15 10  1  0
 27 17  1  0
 27 22  1  0
  1 28  1  0
  1 29  1  0
  1 30  1  0
  5 31  1  0
  6 32  1  0
  6 33  1  0
  7 34  1  0
  7 35  1  0
  8 36  1  0
  8 37  1  0
  9 38  1  0
  9 39  1  0
 11 40  1  0
 12 41  1  0
 13 42  1  0
 14 43  1  0
 23 44  1  0
 24 45  1  0
 25 46  1  0
 26 47  1  0
M  END
>  <Unnamed: 0>  (132) 
752

>  <ID>  (132) 
TRAIN_0752

>  <Canonical_Smiles>  (132) 
Cc1c(C2=CCCCC2)c3ccccn3c1C4=NS(=O)(=O)c5ccccc45

>  <Inhibition>  (132) 
65.319737

>  <TDC_conf_true_inhibitor>  (132) 
1

>  <TDC_conf_non_inhibitor>  (132) 
0

>  <split>  (132) 
1

$$$$
132
     RDKit          3D

 40 43  0  0  0  0  0  0  0  0999 V2000
   -2.3225   -0.5391   -2.1887 C   0  0  0  0  0  0  0  0  0  0  0  0
   -2.8375   -0.3016   -0.8620 N   0  0  0  0  0  0  0  0  0  0  0  0
   -2.0795   -0.2505    0.2861 C   0  0  0  0  0  0  0  0  0  0  0  0
   -0.7408   -0.4155    0.2635 N   0  0  0  0  0  0  0  0  0  0  0  0
   -0.0072   -0.1547    1.4995 C   0  0  0  0  0  0  0  0  0  0  0  0
    1.4674   -0.3620    1.3768 C   0  0  0  0  0  0  0  0  0  0  0  0
    2.3046   -1.1349    2.1475 C   0  0  0  0  0  0  0  0  0  0  0  0
    3.5624   -1.0409    1.6358 O   0  0  0  0  0  0  0  0  0  0  0  0
    3.4312   -0.1942    0.5636 C   0  0  0  0  0  0  0  0  0  0  0  0
    2.1968    0.2328    0.3639 N   0  0  0  0  0  0  0  0  0  0  0  0
    4.6468    0.1211   -0.1820 C   0  0  0  0  0  0  0  0  0  0  0  0
    4.5991    1.0685   -1.2190 C   0  0  0  0  0  0  0  0  0  0  0  0
    5.7483    1.4011   -1.9429 C   0  0  0  0  0  0  0  0  0  0  0  0
    6.9601    0.7851   -1.6422 C   0  0  0  0  0  0  0  0  0  0  0  0
    7.0251   -0.1621   -0.6187 C   0  0  0  0  0  0  0  0  0  0  0  0
    5.8757   -0.4916    0.1077 C   0  0  0  0  0  0  0  0  0  0  0  0
   -2.8361   -0.0340    1.3360 N   0  0  0  0  0  0  0  0  0  0  0  0
   -4.1258    0.0523    0.8676 C   0  0  0  0  0  0  0  0  0  0  0  0
   -5.3331    0.2746    1.5508 C   0  0  0  0  0  0  0  0  0  0  0  0
   -6.5369    0.3182    0.8339 C   0  0  0  0  0  0  0  0  0  0  0  0
   -6.5379    0.1411   -0.5506 C   0  0  0  0  0  0  0  0  0  0  0  0
   -5.3483   -0.0796   -1.2557 C   0  0  0  0  0  0  0  0  0  0  0  0
   -4.1573   -0.1163   -0.5175 C   0  0  0  0  0  0  0  0  0  0  0  0
   -5.2884    0.4750    2.9633 C   0  0  0  0  0  0  0  0  0  0  0  0
   -5.3134    0.6676    4.1091 N   0  0  0  0  0  0  0  0  0  0  0  0
   -1.7318   -1.4625   -2.1778 H   0  0  0  0  0  0  0  0  0  0  0  0
   -3.1451   -0.6441   -2.8988 H   0  0  0  0  0  0  0  0  0  0  0  0
   -1.6979    0.3138   -2.4728 H   0  0  0  0  0  0  0  0  0  0  0  0
   -0.2077   -0.1093   -0.5460 H   0  0  0  0  0  0  0  0  0  0  0  0
   -0.1727    0.8833    1.8110 H   0  0  0  0  0  0  0  0  0  0  0  0
   -0.3901   -0.8022    2.2990 H   0  0  0  0  0  0  0  0  0  0  0  0
    2.1802   -1.7707    3.0109 H   0  0  0  0  0  0  0  0  0  0  0  0
    3.6602    1.5619   -1.4631 H   0  0  0  0  0  0  0  0  0  0  0  0
    5.6957    2.1414   -2.7343 H   0  0  0  0  0  0  0  0  0  0  0  0
    7.8547    1.0445   -2.2026 H   0  0  0  0  0  0  0  0  0  0  0  0
    7.9709   -0.6453   -0.3812 H   0  0  0  0  0  0  0  0  0  0  0  0
    5.9512   -1.2312    0.9046 H   0  0  0  0  0  0  0  0  0  0  0  0
   -7.4761    0.4991    1.3534 H   0  0  0  0  0  0  0  0  0  0  0  0
   -7.4804    0.1789   -1.0951 H   0  0  0  0  0  0  0  0  0  0  0  0
   -5.3636   -0.2182   -2.3330 H   0  0  0  0  0  0  0  0  0  0  0  0
  1  2  1  0
  2  3  1  0
  3  4  1  0
  4  5  1  0
  5  6  1  0
  6  7  2  0
  7  8  1  0
  8  9  1  0
  9 10  2  0
  9 11  1  0
 11 12  2  0
 12 13  1  0
 13 14  2  0
 14 15  1  0
 15 16  2  0
  3 17  2  0
 17 18  1  0
 18 19  2  0
 19 20  1  0
 20 21  2  0
 21 22  1  0
 22 23  2  0
 19 24  1  0
 24 25  3  0
 23  2  1  0
 10  6  1  0
 16 11  1  0
 23 18  1  0
  1 26  1  0
  1 27  1  0
  1 28  1  0
  4 29  1  0
  5 30  1  0
  5 31  1  0
  7 32  1  0
 12 33  1  0
 13 34  1  0
 14 35  1  0
 15 36  1  0
 16 37  1  0
 20 38  1  0
 21 39  1  0
 22 40  1  0
M  END
>  <Unnamed: 0>  (133) 
763

>  <ID>  (133) 
TRAIN_0763

>  <Canonical_Smiles>  (133) 
Cn1c(NCc2coc(n2)c3ccccc3)nc4c(cccc14)C#N

>  <Inhibition>  (133) 
36.770147

>  <TDC_conf_true_inhibitor>  (133) 
1

>  <TDC_conf_non_inhibitor>  (133) 
0

>  <split>  (133) 
1

$$$$
133
     RDKit          3D

 44 46  0  0  0  0  0  0  0  0999 V2000
   -4.2182    0.0355   -1.9179 C   0  0  0  0  0  0  0  0  0  0  0  0
   -3.8953   -0.2334   -0.4368 C   0  0  0  0  0  0  0  0  0  0  0  0
   -4.7121    0.7596    0.4170 C   0  0  0  0  0  0  0  0  0  0  0  0
   -4.2809   -1.6802   -0.0913 C   0  0  0  0  0  0  0  0  0  0  0  0
   -3.7982   -2.0917    1.2807 C   0  0  0  0  0  0  0  0  0  0  0  0
   -4.3770   -2.9516    1.9415 O   0  0  0  0  0  0  0  0  0  0  0  0
   -2.5564   -1.4855    1.8125 C   0  0  0  0  0  0  0  0  0  0  0  0
   -1.8743   -0.5490    1.1311 C   0  0  0  0  0  0  0  0  0  0  0  0
   -2.3802   -0.0329   -0.2050 C   0  0  0  0  0  0  0  0  0  0  0  0
   -0.6957   -0.0040    1.6287 N   0  0  0  0  0  0  0  0  0  0  0  0
    0.3018    0.4716    0.7620 N   0  0  0  0  0  0  0  0  0  0  0  0
    1.6001    0.0706    1.0516 C   0  0  0  0  0  0  0  0  0  0  0  0
    1.8596   -0.7773    1.9023 O   0  0  0  0  0  0  0  0  0  0  0  0
    2.6501    0.8158    0.2383 C   0  0  0  0  0  0  0  0  0  0  0  0
    2.4984    0.5752   -1.2786 C   0  0  0  0  0  0  0  0  0  0  0  0
    3.8817    0.0347   -1.6842 C   0  0  0  0  0  0  0  0  0  0  0  0
    4.9162    1.1684   -1.5798 C   0  0  0  0  0  0  0  0  0  0  0  0
    5.0764    1.3524   -0.0633 C   0  0  0  0  0  0  0  0  0  0  0  0
    4.0896    0.3218    0.5148 C   0  0  0  0  0  0  0  0  0  0  0  0
    4.2412   -0.8317   -0.4801 C   0  0  0  0  0  0  0  0  0  0  0  0
   -5.2870   -0.0976   -2.1202 H   0  0  0  0  0  0  0  0  0  0  0  0
   -3.6688   -0.6478   -2.5752 H   0  0  0  0  0  0  0  0  0  0  0  0
   -3.9482    1.0589   -2.2020 H   0  0  0  0  0  0  0  0  0  0  0  0
   -4.5334    0.6339    1.4895 H   0  0  0  0  0  0  0  0  0  0  0  0
   -4.4596    1.7953    0.1622 H   0  0  0  0  0  0  0  0  0  0  0  0
   -5.7872    0.6310    0.2465 H   0  0  0  0  0  0  0  0  0  0  0  0
   -5.3707   -1.7988   -0.1224 H   0  0  0  0  0  0  0  0  0  0  0  0
   -3.8463   -2.3845   -0.8113 H   0  0  0  0  0  0  0  0  0  0  0  0
   -2.2297   -1.8630    2.7744 H   0  0  0  0  0  0  0  0  0  0  0  0
   -1.8107   -0.5423   -0.9945 H   0  0  0  0  0  0  0  0  0  0  0  0
   -2.1548    1.0380   -0.2970 H   0  0  0  0  0  0  0  0  0  0  0  0
   -0.2826   -0.5614    2.3917 H   0  0  0  0  0  0  0  0  0  0  0  0
    0.1401    1.4018    0.3884 H   0  0  0  0  0  0  0  0  0  0  0  0
    2.5519    1.8810    0.4825 H   0  0  0  0  0  0  0  0  0  0  0  0
    1.7237   -0.1672   -1.5026 H   0  0  0  0  0  0  0  0  0  0  0  0
    2.2481    1.4987   -1.8112 H   0  0  0  0  0  0  0  0  0  0  0  0
    3.8855   -0.4736   -2.6504 H   0  0  0  0  0  0  0  0  0  0  0  0
    4.5836    2.0871   -2.0732 H   0  0  0  0  0  0  0  0  0  0  0  0
    5.8713    0.8675   -2.0248 H   0  0  0  0  0  0  0  0  0  0  0  0
    4.8541    2.3760    0.2542 H   0  0  0  0  0  0  0  0  0  0  0  0
    6.1038    1.1179    0.2377 H   0  0  0  0  0  0  0  0  0  0  0  0
    4.2952    0.0633    1.5558 H   0  0  0  0  0  0  0  0  0  0  0  0
    5.2600   -1.2311   -0.5248 H   0  0  0  0  0  0  0  0  0  0  0  0
    3.5351   -1.6511   -0.3108 H   0  0  0  0  0  0  0  0  0  0  0  0
  1  2  1  0
  2  3  1  0
  2  4  1  0
  4  5  1  0
  5  6  2  0
  5  7  1  0
  7  8  2  0
  8  9  1  0
  8 10  1  0
 10 11  1  0
 11 12  1  0
 12 13  2  0
 12 14  1  0
 14 15  1  0
 15 16  1  0
 16 17  1  0
 17 18  1  0
 18 19  1  0
 19 20  1  0
  9  2  1  0
 19 14  1  0
 20 16  1  0
  1 21  1  0
  1 22  1  0
  1 23  1  0
  3 24  1  0
  3 25  1  0
  3 26  1  0
  4 27  1  0
  4 28  1  0
  7 29  1  0
  9 30  1  0
  9 31  1  0
 10 32  1  0
 11 33  1  0
 14 34  1  0
 15 35  1  0
 15 36  1  0
 16 37  1  0
 17 38  1  0
 17 39  1  0
 18 40  1  0
 18 41  1  0
 19 42  1  0
 20 43  1  0
 20 44  1  0
M  END
>  <Unnamed: 0>  (134) 
771

>  <ID>  (134) 
TRAIN_0771

>  <Canonical_Smiles>  (134) 
CC1(C)CC(=O)C=C(C1)NNC(=O)C2CC3CCC2C3

>  <Inhibition>  (134) 
0.5

>  <TDC_conf_true_inhibitor>  (134) 
0

>  <TDC_conf_non_inhibitor>  (134) 
1

>  <split>  (134) 
1

$$$$
134
     RDKit          3D

 53 56  0  0  0  0  0  0  0  0999 V2000
    8.4630    1.4598   -0.1320 C   0  0  0  0  0  0  0  0  0  0  0  0
    7.2453    1.3891   -1.4719 S   0  0  0  0  0  0  0  0  0  0  0  0
    6.8700   -0.3893   -1.4352 C   0  0  0  0  0  0  0  0  0  0  0  0
    5.9895   -0.8522   -0.2754 C   0  0  0  0  0  0  0  0  0  0  0  0
    4.5639   -0.2860   -0.1690 C   0  0  0  0  0  0  0  0  0  0  0  0
    4.0287    0.2931   -1.3897 N   0  0  0  0  0  0  0  0  0  0  0  0
    2.7091    0.6039   -1.5989 C   0  0  0  0  0  0  0  0  0  0  0  0
    2.3397    1.0754   -2.6688 O   0  0  0  0  0  0  0  0  0  0  0  0
    1.7284    0.3378   -0.5213 C   0  0  0  0  0  0  0  0  0  0  0  0
    0.4758   -0.1536   -0.9265 C   0  0  0  0  0  0  0  0  0  0  0  0
   -0.4995   -0.4852    0.0186 C   0  0  0  0  0  0  0  0  0  0  0  0
   -1.7204   -0.9974   -0.4600 N   0  0  0  0  0  0  0  0  0  0  0  0
   -2.7090   -1.6312    0.2800 C   0  0  0  0  0  0  0  0  0  0  0  0
   -2.6326   -1.9565    1.4647 O   0  0  0  0  0  0  0  0  0  0  0  0
   -3.9431   -1.9569   -0.5364 C   0  0  0  0  0  0  0  0  0  0  0  0
   -4.8949   -0.7940   -0.5634 C   0  0  0  0  0  0  0  0  0  0  0  0
   -4.7731   -0.0013   -1.6620 N   0  0  0  0  0  0  0  0  0  0  0  0
   -5.5652    1.0846   -1.8041 N   0  0  0  0  0  0  0  0  0  0  0  0
   -6.4652    1.3633   -0.8412 C   0  0  0  0  0  0  0  0  0  0  0  0
   -7.2138    2.4755   -1.0854 O   0  0  0  0  0  0  0  0  0  0  0  0
   -6.6450    0.6065    0.3129 C   0  0  0  0  0  0  0  0  0  0  0  0
   -7.6005    0.9322    1.3060 C   0  0  0  0  0  0  0  0  0  0  0  0
   -7.7447    0.1491    2.4495 C   0  0  0  0  0  0  0  0  0  0  0  0
   -6.9379   -0.9682    2.6185 C   0  0  0  0  0  0  0  0  0  0  0  0
   -5.9864   -1.3024    1.6435 C   0  0  0  0  0  0  0  0  0  0  0  0
   -5.8230   -0.5249    0.4697 C   0  0  0  0  0  0  0  0  0  0  0  0
   -0.2278   -0.2712    1.3693 C   0  0  0  0  0  0  0  0  0  0  0  0
    0.9993    0.2757    1.7663 C   0  0  0  0  0  0  0  0  0  0  0  0
    2.0045    0.5735    0.8381 C   0  0  0  0  0  0  0  0  0  0  0  0
    3.1845    1.1454    1.3591 N   0  0  0  0  0  0  0  0  0  0  0  0
    4.3318    0.7541    0.9136 C   0  0  0  0  0  0  0  0  0  0  0  0
    5.4082    1.3300    1.4542 O   0  0  0  0  0  0  0  0  0  0  0  0
    9.2548    0.7186   -0.2947 H   0  0  0  0  0  0  0  0  0  0  0  0
    7.9857    1.2688    0.8358 H   0  0  0  0  0  0  0  0  0  0  0  0
    8.9137    2.4593   -0.1075 H   0  0  0  0  0  0  0  0  0  0  0  0
    7.8140   -0.9429   -1.4215 H   0  0  0  0  0  0  0  0  0  0  0  0
    6.3901   -0.6455   -2.3855 H   0  0  0  0  0  0  0  0  0  0  0  0
    6.5263   -0.7425    0.6739 H   0  0  0  0  0  0  0  0  0  0  0  0
    5.8838   -1.9386   -0.4062 H   0  0  0  0  0  0  0  0  0  0  0  0
    3.9240   -1.1373    0.0990 H   0  0  0  0  0  0  0  0  0  0  0  0
    4.6545    0.7334   -2.0571 H   0  0  0  0  0  0  0  0  0  0  0  0
    0.2859   -0.2909   -1.9908 H   0  0  0  0  0  0  0  0  0  0  0  0
   -1.8685   -0.9308   -1.4599 H   0  0  0  0  0  0  0  0  0  0  0  0
   -4.4210   -2.8672   -0.1415 H   0  0  0  0  0  0  0  0  0  0  0  0
   -3.6399   -2.2145   -1.5623 H   0  0  0  0  0  0  0  0  0  0  0  0
   -6.8346    2.7704   -1.9371 H   0  0  0  0  0  0  0  0  0  0  0  0
   -8.2374    1.8087    1.1873 H   0  0  0  0  0  0  0  0  0  0  0  0
   -8.4839    0.4191    3.2094 H   0  0  0  0  0  0  0  0  0  0  0  0
   -7.0379   -1.5788    3.5144 H   0  0  0  0  0  0  0  0  0  0  0  0
   -5.3674   -2.1824    1.8255 H   0  0  0  0  0  0  0  0  0  0  0  0
   -0.9649   -0.4809    2.1383 H   0  0  0  0  0  0  0  0  0  0  0  0
    1.1702    0.4812    2.8205 H   0  0  0  0  0  0  0  0  0  0  0  0
    5.0925    2.0144    2.0622 H   0  0  0  0  0  0  0  0  0  0  0  0
  1  2  1  0
  2  3  1  0
  3  4  1  0
  4  5  1  0
  5  6  1  0
  6  7  1  0
  7  8  2  0
  7  9  1  0
  9 10  2  0
 10 11  1  0
 11 12  1  0
 12 13  1  0
 13 14  2  0
 13 15  1  0
 15 16  1  0
 16 17  2  0
 17 18  1  0
 18 19  2  0
 19 20  1  0
 19 21  1  0
 21 22  2  0
 22 23  1  0
 23 24  2  0
 24 25  1  0
 25 26  2  0
 11 27  2  0
 27 28  1  0
 28 29  2  0
 29 30  1  0
 30 31  2  0
 31 32  1  0
 31  5  1  0
 29  9  1  0
 26 16  1  0
 26 21  1  0
  1 33  1  0
  1 34  1  0
  1 35  1  0
  3 36  1  0
  3 37  1  0
  4 38  1  0
  4 39  1  0
  5 40  1  0
  6 41  1  0
 10 42  1  0
 12 43  1  0
 15 44  1  0
 15 45  1  0
 20 46  1  0
 22 47  1  0
 23 48  1  0
 24 49  1  0
 25 50  1  0
 27 51  1  0
 28 52  1  0
 32 53  1  0
M  END
>  <Unnamed: 0>  (135) 
774

>  <ID>  (135) 
TRAIN_0774

>  <Canonical_Smiles>  (135) 
CSCCC1NC(=O)c2cc(NC(=O)Cc3nnc(O)c4ccccc34)ccc2N=C1O

>  <Inhibition>  (135) 
0.5

>  <TDC_conf_true_inhibitor>  (135) 
0

>  <TDC_conf_non_inhibitor>  (135) 
1

>  <split>  (135) 
1

$$$$
135
     RDKit          3D

 48 49  0  0  0  0  0  0  0  0999 V2000
   -7.6979    1.7384   -0.3442 C   0  0  0  0  0  0  0  0  0  0  0  0
   -7.2479    0.2931   -0.5079 C   0  0  0  0  0  0  0  0  0  0  0  0
   -5.8062    0.0721   -0.0542 C   0  0  0  0  0  0  0  0  0  0  0  0
   -4.7876    0.6627   -1.0023 C   0  0  0  0  0  0  0  0  0  0  0  0
   -5.0101    1.0486   -2.1404 O   0  0  0  0  0  0  0  0  0  0  0  0
   -3.5637    0.6778   -0.4018 O   0  0  0  0  0  0  0  0  0  0  0  0
   -2.5046    1.1728   -1.2402 C   0  0  0  0  0  0  0  0  0  0  0  0
   -1.1988    1.1567   -0.4374 C   0  0  0  0  0  0  0  0  0  0  0  0
   -0.8679   -0.2213   -0.0511 N   0  0  0  0  0  0  0  0  0  0  0  0
    0.2166   -0.4958    0.8025 C   0  0  0  0  0  0  0  0  0  0  0  0
    1.2774    0.4440    0.9718 C   0  0  0  0  0  0  0  0  0  0  0  0
    2.4436    0.2241    1.7500 C   0  0  0  0  0  0  0  0  0  0  0  0
    3.6762    1.4777    1.9513 S   0  0  0  0  0  0  0  0  0  0  0  0
    5.1806    0.6185    1.3664 C   0  0  0  0  0  0  0  0  0  0  0  0
    5.1060    0.1970   -0.0875 C   0  0  0  0  0  0  0  0  0  0  0  0
    4.1188    0.2300   -0.8094 O   0  0  0  0  0  0  0  0  0  0  0  0
    6.3347   -0.2593   -0.4768 O   0  0  0  0  0  0  0  0  0  0  0  0
    6.4327   -0.7231   -1.8324 C   0  0  0  0  0  0  0  0  0  0  0  0
    6.7254    0.4381   -2.7638 C   0  0  0  0  0  0  0  0  0  0  0  0
    2.5163   -1.0347    2.3875 C   0  0  0  0  0  0  0  0  0  0  0  0
    3.4469   -1.5441    3.2073 N   0  0  0  0  0  0  0  0  0  0  0  0
    3.0171   -2.8125    3.5394 O   0  0  0  0  0  0  0  0  0  0  0  0
    1.8130   -3.1151    2.9378 N   0  0  0  0  0  0  0  0  0  0  0  0
    1.4744   -2.0405    2.2112 C   0  0  0  0  0  0  0  0  0  0  0  0
    0.3552   -1.7742    1.4011 C   0  0  0  0  0  0  0  0  0  0  0  0
   -0.6234   -2.8134    1.2454 N   0  0  0  0  0  4  0  0  0  0  0  0
   -0.2330   -3.9233    0.8618 O   0  0  0  0  0  0  0  0  0  0  0  0
   -1.8040   -2.5101    1.4782 O   0  0  0  0  0  1  0  0  0  0  0  0
   -7.6193    2.0567    0.7003 H   0  0  0  0  0  0  0  0  0  0  0  0
   -7.0975    2.4180   -0.9564 H   0  0  0  0  0  0  0  0  0  0  0  0
   -8.7431    1.8443   -0.6515 H   0  0  0  0  0  0  0  0  0  0  0  0
   -7.3732   -0.0110   -1.5536 H   0  0  0  0  0  0  0  0  0  0  0  0
   -7.9070   -0.3447    0.0929 H   0  0  0  0  0  0  0  0  0  0  0  0
   -5.6610    0.5059    0.9418 H   0  0  0  0  0  0  0  0  0  0  0  0
   -5.6084   -1.0044    0.0031 H   0  0  0  0  0  0  0  0  0  0  0  0
   -2.4124    0.5319   -2.1251 H   0  0  0  0  0  0  0  0  0  0  0  0
   -2.7306    2.2005   -1.5470 H   0  0  0  0  0  0  0  0  0  0  0  0
   -1.3243    1.7671    0.4647 H   0  0  0  0  0  0  0  0  0  0  0  0
   -0.4023    1.5804   -1.0580 H   0  0  0  0  0  0  0  0  0  0  0  0
   -1.7184   -0.7289    0.2261 H   0  0  0  0  0  0  0  0  0  0  0  0
    1.2167    1.4072    0.4647 H   0  0  0  0  0  0  0  0  0  0  0  0
    6.0064    1.3294    1.4716 H   0  0  0  0  0  0  0  0  0  0  0  0
    5.3927   -0.2549    1.9870 H   0  0  0  0  0  0  0  0  0  0  0  0
    7.2606   -1.4390   -1.8655 H   0  0  0  0  0  0  0  0  0  0  0  0
    5.5281   -1.2634   -2.1346 H   0  0  0  0  0  0  0  0  0  0  0  0
    6.8659    0.0861   -3.7899 H   0  0  0  0  0  0  0  0  0  0  0  0
    5.9084    1.1666   -2.7534 H   0  0  0  0  0  0  0  0  0  0  0  0
    7.6289    0.9682   -2.4448 H   0  0  0  0  0  0  0  0  0  0  0  0
  1  2  1  0
  2  3  1  0
  3  4  1  0
  4  5  2  0
  4  6  1  0
  6  7  1  0
  7  8  1  0
  8  9  1  0
  9 10  1  0
 10 11  1  0
 11 12  2  0
 12 13  1  0
 13 14  1  0
 14 15  1  0
 15 16  2  0
 15 17  1  0
 17 18  1  0
 18 19  1  0
 12 20  1  0
 20 21  2  0
 21 22  1  0
 22 23  1  0
 23 24  2  0
 24 25  1  0
 25 26  1  0
 26 27  2  0
 26 28  1  0
 25 10  2  0
 24 20  1  0
  1 29  1  0
  1 30  1  0
  1 31  1  0
  2 32  1  0
  2 33  1  0
  3 34  1  0
  3 35  1  0
  7 36  1  0
  7 37  1  0
  8 38  1  0
  8 39  1  0
  9 40  1  0
 11 41  1  0
 14 42  1  0
 14 43  1  0
 18 44  1  0
 18 45  1  0
 19 46  1  0
 19 47  1  0
 19 48  1  0
M  CHG  2  26   1  28  -1
M  END
>  <Unnamed: 0>  (136) 
776

>  <ID>  (136) 
TRAIN_0776

>  <Canonical_Smiles>  (136) 
CCCC(=O)OCCNc1cc(SCC(=O)OCC)c2nonc2c1[N+](=O)[O-]

>  <Inhibition>  (136) 
0.5

>  <TDC_conf_true_inhibitor>  (136) 
0

>  <TDC_conf_non_inhibitor>  (136) 
1

>  <split>  (136) 
1

$$$$
136
     RDKit          3D

 31 32  0  0  0  0  0  0  0  0999 V2000
   -3.6574    1.6849    0.5906 C   0  0  0  0  0  0  0  0  0  0  0  0
   -3.7503    0.2542    1.0872 C   0  0  0  0  0  0  0  0  0  0  0  0
   -3.1205   -0.6360    0.1532 O   0  0  0  0  0  0  0  0  0  0  0  0
   -1.7794   -0.7978    0.3005 C   0  0  0  0  0  0  0  0  0  0  0  0
   -1.0946   -0.2682    1.1633 O   0  0  0  0  0  0  0  0  0  0  0  0
   -1.2412   -1.7213   -0.7405 C   0  0  0  0  0  0  0  0  0  0  0  0
   -2.0223   -2.3650   -1.6209 C   0  0  0  0  0  0  0  0  0  0  0  0
   -1.0996   -3.3356   -2.7248 S   0  0  0  0  0  0  0  0  0  0  0  0
    0.4172   -2.8170   -1.9793 C   0  0  0  0  0  0  0  0  0  0  0  0
    1.5185   -3.1625   -2.3729 O   0  0  0  0  0  0  0  0  0  0  0  0
    0.1146   -1.9926   -0.9087 N   0  0  0  0  0  0  0  0  0  0  0  0
    1.1894   -1.3468   -0.1690 C   0  0  0  0  0  0  0  0  0  0  0  0
    1.4239    0.0968   -0.6308 C   0  0  0  0  0  0  0  0  0  0  0  0
    0.7600    0.6098   -1.5340 O   0  0  0  0  0  0  0  0  0  0  0  0
    2.4753    0.8396    0.0416 C   0  0  0  0  0  0  0  0  0  0  0  0
    3.3390    0.4861    1.0648 C   0  0  0  0  0  0  0  0  0  0  0  0
    4.1712    1.5998    1.3380 C   0  0  0  0  0  0  0  0  0  0  0  0
    3.7998    2.6080    0.4800 C   0  0  0  0  0  0  0  0  0  0  0  0
    2.7751    2.1418   -0.2978 N   0  0  0  0  0  0  0  0  0  0  0  0
   -4.0907    1.7729   -0.4111 H   0  0  0  0  0  0  0  0  0  0  0  0
   -2.6144    2.0083    0.5156 H   0  0  0  0  0  0  0  0  0  0  0  0
   -4.1860    2.3645    1.2650 H   0  0  0  0  0  0  0  0  0  0  0  0
   -4.8015   -0.0447    1.1540 H   0  0  0  0  0  0  0  0  0  0  0  0
   -3.3211    0.1478    2.0900 H   0  0  0  0  0  0  0  0  0  0  0  0
   -3.1004   -2.3030   -1.6832 H   0  0  0  0  0  0  0  0  0  0  0  0
    2.1196   -1.9023   -0.3375 H   0  0  0  0  0  0  0  0  0  0  0  0
    0.9737   -1.3865    0.9021 H   0  0  0  0  0  0  0  0  0  0  0  0
    3.3777   -0.4697    1.5720 H   0  0  0  0  0  0  0  0  0  0  0  0
    4.9563    1.6590    2.0813 H   0  0  0  0  0  0  0  0  0  0  0  0
    4.1748    3.6154    0.3561 H   0  0  0  0  0  0  0  0  0  0  0  0
    2.2932    2.6599   -1.0235 H   0  0  0  0  0  0  0  0  0  0  0  0
  1  2  1  0
  2  3  1  0
  3  4  1  0
  4  5  2  0
  4  6  1  0
  6  7  2  0
  7  8  1  0
  8  9  1  0
  9 10  2  0
  9 11  1  0
 11 12  1  0
 12 13  1  0
 13 14  2  0
 13 15  1  0
 15 16  2  0
 16 17  1  0
 17 18  2  0
 18 19  1  0
 11  6  1  0
 19 15  1  0
  1 20  1  0
  1 21  1  0
  1 22  1  0
  2 23  1  0
  2 24  1  0
  7 25  1  0
 12 26  1  0
 12 27  1  0
 16 28  1  0
 17 29  1  0
 18 30  1  0
 19 31  1  0
M  END
>  <Unnamed: 0>  (137) 
777

>  <ID>  (137) 
TRAIN_0777

>  <Canonical_Smiles>  (137) 
CCOC(=O)C1=CSC(=O)N1CC(=O)c2ccc[nH]2

>  <Inhibition>  (137) 
0.5

>  <TDC_conf_true_inhibitor>  (137) 
0

>  <TDC_conf_non_inhibitor>  (137) 
1

>  <split>  (137) 
1

$$$$
137
     RDKit          3D

 48 51  0  0  0  0  0  0  0  0999 V2000
   -5.8868   -0.4051   -0.7603 C   0  0  0  0  0  0  0  0  0  0  0  0
   -4.5253    0.0343   -0.3063 C   0  0  0  0  0  0  0  0  0  0  0  0
   -4.1207    1.3602   -0.4716 C   0  0  0  0  0  0  0  0  0  0  0  0
   -2.8658    1.8145   -0.0212 C   0  0  0  0  0  0  0  0  0  0  0  0
   -2.6659    3.3053   -0.0625 C   0  0  0  0  0  0  0  0  0  0  0  0
   -1.9715    0.8737    0.5279 C   0  0  0  0  0  0  0  0  0  0  0  0
   -2.4185   -0.4413    0.8300 C   0  0  0  0  0  0  0  0  0  0  0  0
   -3.6874   -0.8446    0.3838 C   0  0  0  0  0  0  0  0  0  0  0  0
   -1.5712   -1.3528    1.6501 C   0  0  0  0  0  0  0  0  0  0  0  0
   -2.0656   -2.7255    2.0115 C   0  0  0  0  0  0  0  0  0  0  0  0
   -0.3798   -0.9207    2.1014 C   0  0  0  0  0  0  0  0  0  0  0  0
    0.1228    0.3411    1.7261 C   0  0  0  0  0  0  0  0  0  0  0  0
    1.2622    0.9318    2.0243 N   0  0  0  0  0  0  0  0  0  0  0  0
    1.3779    2.0324    1.2231 N   0  0  0  0  0  0  0  0  0  0  0  0
    0.3218    2.0623    0.4354 C   0  0  0  0  0  0  0  0  0  0  0  0
    0.3361    2.8386   -1.1169 S   0  0  0  0  0  0  0  0  0  0  0  0
    2.1226    2.9611   -1.4293 C   0  0  0  0  0  0  0  0  0  0  0  0
    2.6965    1.6034   -1.8128 C   0  0  0  0  0  0  0  0  0  0  0  0
    2.7641    1.2638   -2.9922 O   0  0  0  0  0  0  0  0  0  0  0  0
    3.1001    0.8489   -0.7233 N   0  0  0  0  0  0  0  0  0  0  0  0
    3.6801   -0.4360   -0.7302 C   0  0  0  0  0  0  0  0  0  0  0  0
    3.8837   -1.0479    0.5156 C   0  0  0  0  0  0  0  0  0  0  0  0
    4.4500   -2.3223    0.6011 C   0  0  0  0  0  0  0  0  0  0  0  0
    4.8236   -2.9948   -0.5591 C   0  0  0  0  0  0  0  0  0  0  0  0
    4.6259   -2.3875   -1.7922 C   0  0  0  0  0  0  0  0  0  0  0  0
    5.0067   -3.0781   -2.9062 O   0  0  0  0  0  0  0  0  0  0  0  0
    4.0585   -1.1162   -1.8891 C   0  0  0  0  0  0  0  0  0  0  0  0
   -0.6177    1.1469    0.8720 N   0  0  0  0  0  0  0  0  0  0  0  0
   -5.8979   -1.4770   -0.9840 H   0  0  0  0  0  0  0  0  0  0  0  0
   -6.6265   -0.1991    0.0196 H   0  0  0  0  0  0  0  0  0  0  0  0
   -6.1803    0.1182   -1.6757 H   0  0  0  0  0  0  0  0  0  0  0  0
   -4.8139    2.0682   -0.9279 H   0  0  0  0  0  0  0  0  0  0  0  0
   -2.4270    3.6383   -1.0757 H   0  0  0  0  0  0  0  0  0  0  0  0
   -3.5891    3.8125    0.2442 H   0  0  0  0  0  0  0  0  0  0  0  0
   -1.9063    3.6441    0.6467 H   0  0  0  0  0  0  0  0  0  0  0  0
   -4.0485   -1.8527    0.5710 H   0  0  0  0  0  0  0  0  0  0  0  0
   -3.0105   -2.6710    2.5612 H   0  0  0  0  0  0  0  0  0  0  0  0
   -1.3533   -3.2586    2.6523 H   0  0  0  0  0  0  0  0  0  0  0  0
   -2.2087   -3.3343    1.1135 H   0  0  0  0  0  0  0  0  0  0  0  0
    0.2530   -1.5449    2.7240 H   0  0  0  0  0  0  0  0  0  0  0  0
    2.2834    3.6454   -2.2697 H   0  0  0  0  0  0  0  0  0  0  0  0
    2.6558    3.3852   -0.5726 H   0  0  0  0  0  0  0  0  0  0  0  0
    2.8510    1.2125    0.1990 H   0  0  0  0  0  0  0  0  0  0  0  0
    3.6004   -0.5405    1.4356 H   0  0  0  0  0  0  0  0  0  0  0  0
    4.5981   -2.7885    1.5707 H   0  0  0  0  0  0  0  0  0  0  0  0
    5.2677   -3.9846   -0.5040 H   0  0  0  0  0  0  0  0  0  0  0  0
    4.7676   -2.5499   -3.6858 H   0  0  0  0  0  0  0  0  0  0  0  0
    3.9284   -0.6690   -2.8670 H   0  0  0  0  0  0  0  0  0  0  0  0
  1  2  1  0
  2  3  2  0
  3  4  1  0
  4  5  1  0
  4  6  2  0
  6  7  1  0
  7  8  2  0
  7  9  1  0
  9 10  1  0
  9 11  2  0
 11 12  1  0
 12 13  2  0
 13 14  1  0
 14 15  2  0
 15 16  1  0
 16 17  1  0
 17 18  1  0
 18 19  2  0
 18 20  1  0
 20 21  1  0
 21 22  2  0
 22 23  1  0
 23 24  2  0
 24 25  1  0
 25 26  1  0
 25 27  2  0
 15 28  1  0
  8  2  1  0
 28  6  1  0
 28 12  1  0
 27 21  1  0
  1 29  1  0
  1 30  1  0
  1 31  1  0
  3 32  1  0
  5 33  1  0
  5 34  1  0
  5 35  1  0
  8 36  1  0
 10 37  1  0
 10 38  1  0
 10 39  1  0
 11 40  1  0
 17 41  1  0
 17 42  1  0
 20 43  1  0
 22 44  1  0
 23 45  1  0
 24 46  1  0
 26 47  1  0
 27 48  1  0
M  END
>  <Unnamed: 0>  (138) 
781

>  <ID>  (138) 
TRAIN_0781

>  <Canonical_Smiles>  (138) 
Cc1cc(C)c2c(c1)c(C)cc3nnc(SCC(=O)Nc4cccc(O)c4)n23

>  <Inhibition>  (138) 
82.020772

>  <TDC_conf_true_inhibitor>  (138) 
1

>  <TDC_conf_non_inhibitor>  (138) 
0

>  <split>  (138) 
1

$$$$
138
     RDKit          3D

 42 45  0  0  0  0  0  0  0  0999 V2000
   -7.0271   -0.4911   -1.9060 C   0  0  0  0  0  0  0  0  0  0  0  0
   -5.7917   -0.5705   -1.0521 C   0  0  0  0  0  0  0  0  0  0  0  0
   -5.3874   -1.8099   -0.5395 C   0  0  0  0  0  0  0  0  0  0  0  0
   -4.2449   -1.9151    0.2575 C   0  0  0  0  0  0  0  0  0  0  0  0
   -3.4818   -0.7850    0.5608 C   0  0  0  0  0  0  0  0  0  0  0  0
   -2.3457   -0.9753    1.3646 N   0  0  0  0  0  0  0  0  0  0  0  0
   -1.4513   -0.0478    1.8242 C   0  0  0  0  0  0  0  0  0  0  0  0
   -1.5024    1.1618    1.6588 O   0  0  0  0  0  0  0  0  0  0  0  0
   -0.4881   -0.6655    2.5685 N   0  0  0  0  0  0  0  0  0  0  0  0
    0.7420   -0.5530    2.1905 C   0  0  0  0  0  0  0  0  0  0  0  0
    1.8080   -1.0717    2.8710 N   0  0  0  0  0  0  0  0  0  0  0  0
    3.0700   -0.8721    2.3988 N   0  0  0  0  0  0  0  0  0  0  0  0
    2.9945   -0.2021    1.2830 C   0  0  0  0  0  0  0  0  0  0  0  0
    1.3690    0.2197    0.7450 S   0  0  0  0  0  0  0  0  0  0  0  0
    4.1876    0.1911    0.4911 C   0  0  0  0  0  0  0  0  0  0  0  0
    4.1006    0.9675   -0.6882 C   0  0  0  0  0  0  0  0  0  0  0  0
    5.2516    1.3171   -1.4065 C   0  0  0  0  0  0  0  0  0  0  0  0
    6.4662    0.8814   -0.9265 C   0  0  0  0  0  0  0  0  0  0  0  0
    7.6783    1.1247   -1.4905 O   0  0  0  0  0  0  0  0  0  0  0  0
    8.5508    0.4401   -0.5673 C   0  0  0  0  0  0  0  0  0  0  0  0
    7.8465   -0.1976    0.5190 O   0  0  0  0  0  0  0  0  0  0  0  0
    6.5609    0.1283    0.2185 C   0  0  0  0  0  0  0  0  0  0  0  0
    5.4475   -0.2324    0.9482 C   0  0  0  0  0  0  0  0  0  0  0  0
   -3.8794    0.4522    0.0514 C   0  0  0  0  0  0  0  0  0  0  0  0
   -5.0287    0.5744   -0.7534 C   0  0  0  0  0  0  0  0  0  0  0  0
   -5.4153    1.9319   -1.2760 C   0  0  0  0  0  0  0  0  0  0  0  0
   -7.7692    0.1658   -1.4414 H   0  0  0  0  0  0  0  0  0  0  0  0
   -7.4918   -1.4746   -2.0333 H   0  0  0  0  0  0  0  0  0  0  0  0
   -6.7772   -0.1138   -2.9027 H   0  0  0  0  0  0  0  0  0  0  0  0
   -5.9614   -2.7081   -0.7568 H   0  0  0  0  0  0  0  0  0  0  0  0
   -3.9648   -2.8943    0.6364 H   0  0  0  0  0  0  0  0  0  0  0  0
   -2.1403   -1.9102    1.6829 H   0  0  0  0  0  0  0  0  0  0  0  0
    1.6534   -1.5080    3.7739 H   0  0  0  0  0  0  0  0  0  0  0  0
    3.1435    1.3170   -1.0679 H   0  0  0  0  0  0  0  0  0  0  0  0
    5.1902    1.9130   -2.3107 H   0  0  0  0  0  0  0  0  0  0  0  0
    9.2580    1.1656   -0.1490 H   0  0  0  0  0  0  0  0  0  0  0  0
    9.1132   -0.3236   -1.1168 H   0  0  0  0  0  0  0  0  0  0  0  0
    5.5599   -0.8279    1.8488 H   0  0  0  0  0  0  0  0  0  0  0  0
   -3.3057    1.3491    0.2674 H   0  0  0  0  0  0  0  0  0  0  0  0
   -6.4076    2.2118   -0.9084 H   0  0  0  0  0  0  0  0  0  0  0  0
   -4.7129    2.7059   -0.9489 H   0  0  0  0  0  0  0  0  0  0  0  0
   -5.4172    1.9311   -2.3705 H   0  0  0  0  0  0  0  0  0  0  0  0
  1  2  1  0
  2  3  2  0
  3  4  1  0
  4  5  2  0
  5  6  1  0
  6  7  1  0
  7  8  2  0
  7  9  1  0
  9 10  2  0
 10 11  1  0
 11 12  1  0
 12 13  2  0
 13 14  1  0
 13 15  1  0
 15 16  2  0
 16 17  1  0
 17 18  2  0
 18 19  1  0
 19 20  1  0
 20 21  1  0
 21 22  1  0
 22 23  2  0
  5 24  1  0
 24 25  2  0
 25 26  1  0
 25  2  1  0
 14 10  1  0
 23 15  1  0
 22 18  1  0
  1 27  1  0
  1 28  1  0
  1 29  1  0
  3 30  1  0
  4 31  1  0
  6 32  1  0
 11 33  1  0
 16 34  1  0
 17 35  1  0
 20 36  1  0
 20 37  1  0
 23 38  1  0
 24 39  1  0
 26 40  1  0
 26 41  1  0
 26 42  1  0
M  END
>  <Unnamed: 0>  (139) 
783

>  <ID>  (139) 
TRAIN_0783

>  <Canonical_Smiles>  (139) 
Cc1ccc(NC(=O)\N=C/2\NN=C(S2)c3ccc4OCOc4c3)cc1C

>  <Inhibition>  (139) 
1.864836

>  <TDC_conf_true_inhibitor>  (139) 
0

>  <TDC_conf_non_inhibitor>  (139) 
1

>  <split>  (139) 
1

$$$$
139
     RDKit          3D

 53 56  0  0  0  0  0  0  0  0999 V2000
    0.1986   -3.9785    1.4248 C   0  0  0  0  0  0  0  0  0  0  0  0
    0.5916   -2.7727    0.6781 C   0  0  0  0  0  0  0  0  0  0  0  0
    1.9119   -2.4244    0.7297 O   0  0  0  0  0  0  0  0  0  0  0  0
    1.9969   -1.2912   -0.0382 C   0  0  0  0  0  0  0  0  0  0  0  0
    0.8491   -0.9167   -0.5687 N   0  0  0  0  0  0  0  0  0  0  0  0
   -0.0648   -1.8444   -0.1048 C   0  0  0  0  0  0  0  0  0  0  0  0
   -1.5098   -1.7710   -0.4830 C   0  0  0  0  0  0  0  0  0  0  0  0
   -2.2037   -0.7088    0.2635 N   0  0  0  0  0  0  0  0  0  0  0  0
   -2.2938   -0.9902    1.7059 C   0  0  0  0  0  0  0  0  0  0  0  0
   -3.4721   -0.2923    2.4022 C   0  0  0  0  0  0  0  0  0  0  0  0
   -3.7639    1.0619    1.7671 C   0  0  0  0  0  0  0  0  0  0  0  0
   -4.0818    0.9154    0.2518 C   0  0  0  0  0  0  0  0  0  0  0  0
   -5.6124    0.9412    0.0512 C   0  0  0  0  0  0  0  0  0  0  0  0
   -5.9568    0.6946   -1.3095 O   0  0  0  0  0  0  0  0  0  0  0  0
   -3.4413    2.0951   -0.5153 C   0  0  0  0  0  0  0  0  0  0  0  0
   -3.9210    3.3444   -0.0162 O   0  0  0  0  0  0  0  0  0  0  0  0
   -3.5228   -0.4219   -0.3100 C   0  0  0  0  0  0  0  0  0  0  0  0
    3.3145   -0.6732   -0.1607 C   0  0  0  0  0  0  0  0  0  0  0  0
    4.4526   -1.2246    0.4421 C   0  0  0  0  0  0  0  0  0  0  0  0
    5.7015   -0.6095    0.3071 C   0  0  0  0  0  0  0  0  0  0  0  0
    5.8421    0.5733   -0.4345 C   0  0  0  0  0  0  0  0  0  0  0  0
    7.0886    1.2034   -0.5799 C   0  0  0  0  0  0  0  0  0  0  0  0
    7.2105    2.3800   -1.3208 C   0  0  0  0  0  0  0  0  0  0  0  0
    6.0892    2.9408   -1.9260 C   0  0  0  0  0  0  0  0  0  0  0  0
    4.8434    2.3262   -1.7908 C   0  0  0  0  0  0  0  0  0  0  0  0
    4.7036    1.1420   -1.0483 C   0  0  0  0  0  0  0  0  0  0  0  0
    3.4560    0.5105   -0.9027 C   0  0  0  0  0  0  0  0  0  0  0  0
    0.6598   -4.8675    0.9826 H   0  0  0  0  0  0  0  0  0  0  0  0
    0.5213   -3.9068    2.4682 H   0  0  0  0  0  0  0  0  0  0  0  0
   -0.8863   -4.1182    1.4155 H   0  0  0  0  0  0  0  0  0  0  0  0
   -1.5446   -1.5529   -1.5587 H   0  0  0  0  0  0  0  0  0  0  0  0
   -2.0029   -2.7410   -0.3424 H   0  0  0  0  0  0  0  0  0  0  0  0
   -1.3615   -0.6564    2.1785 H   0  0  0  0  0  0  0  0  0  0  0  0
   -2.3892   -2.0656    1.9033 H   0  0  0  0  0  0  0  0  0  0  0  0
   -4.3678   -0.9242    2.3397 H   0  0  0  0  0  0  0  0  0  0  0  0
   -3.2473   -0.1673    3.4680 H   0  0  0  0  0  0  0  0  0  0  0  0
   -2.8821    1.6994    1.9150 H   0  0  0  0  0  0  0  0  0  0  0  0
   -4.5876    1.5542    2.2984 H   0  0  0  0  0  0  0  0  0  0  0  0
   -6.0383    1.9071    0.3449 H   0  0  0  0  0  0  0  0  0  0  0  0
   -6.0944    0.1669    0.6584 H   0  0  0  0  0  0  0  0  0  0  0  0
   -6.9103    0.8761   -1.3916 H   0  0  0  0  0  0  0  0  0  0  0  0
   -3.6719    2.0484   -1.5856 H   0  0  0  0  0  0  0  0  0  0  0  0
   -2.3508    2.0877   -0.4056 H   0  0  0  0  0  0  0  0  0  0  0  0
   -3.4284    4.0356   -0.4913 H   0  0  0  0  0  0  0  0  0  0  0  0
   -4.2086   -1.2570   -0.1080 H   0  0  0  0  0  0  0  0  0  0  0  0
   -3.4517   -0.3427   -1.4029 H   0  0  0  0  0  0  0  0  0  0  0  0
    4.3797   -2.1414    1.0235 H   0  0  0  0  0  0  0  0  0  0  0  0
    6.5651   -1.0639    0.7874 H   0  0  0  0  0  0  0  0  0  0  0  0
    7.9763    0.7806   -0.1138 H   0  0  0  0  0  0  0  0  0  0  0  0
    8.1810    2.8579   -1.4249 H   0  0  0  0  0  0  0  0  0  0  0  0
    6.1825    3.8571   -2.5036 H   0  0  0  0  0  0  0  0  0  0  0  0
    3.9783    2.7791   -2.2703 H   0  0  0  0  0  0  0  0  0  0  0  0
    2.5736    0.9454   -1.3734 H   0  0  0  0  0  0  0  0  0  0  0  0
  1  2  1  0
  2  3  1  0
  3  4  1  0
  4  5  2  0
  5  6  1  0
  6  7  1  0
  7  8  1  0
  8  9  1  0
  9 10  1  0
 10 11  1  0
 11 12  1  0
 12 13  1  0
 13 14  1  0
 12 15  1  0
 15 16  1  0
 12 17  1  0
  4 18  1  0
 18 19  2  0
 19 20  1  0
 20 21  2  0
 21 22  1  0
 22 23  2  0
 23 24  1  0
 24 25  2  0
 25 26  1  0
 26 27  2  0
  6  2  2  0
 17  8  1  0
 27 18  1  0
 26 21  1  0
  1 28  1  0
  1 29  1  0
  1 30  1  0
  7 31  1  0
  7 32  1  0
  9 33  1  0
  9 34  1  0
 10 35  1  0
 10 36  1  0
 11 37  1  0
 11 38  1  0
 13 39  1  0
 13 40  1  0
 14 41  1  0
 15 42  1  0
 15 43  1  0
 16 44  1  0
 17 45  1  0
 17 46  1  0
 19 47  1  0
 20 48  1  0
 22 49  1  0
 23 50  1  0
 24 51  1  0
 25 52  1  0
 27 53  1  0
M  END
>  <Unnamed: 0>  (140) 
786

>  <ID>  (140) 
TRAIN_0786

>  <Canonical_Smiles>  (140) 
Cc1oc(nc1CN2CCCC(CO)(CO)C2)c3ccc4ccccc4c3

>  <Inhibition>  (140) 
39.062636

>  <TDC_conf_true_inhibitor>  (140) 
1

>  <TDC_conf_non_inhibitor>  (140) 
0

>  <split>  (140) 
1

$$$$
140
     RDKit          3D

 38 41  0  0  0  0  0  0  0  0999 V2000
    7.9796    0.5556    0.3936 C   0  0  0  0  0  0  0  0  0  0  0  0
    6.7894    1.0811   -0.1960 O   0  0  0  0  0  0  0  0  0  0  0  0
    5.6639    0.3836    0.1051 C   0  0  0  0  0  0  0  0  0  0  0  0
    5.6293   -0.6126    0.8180 O   0  0  0  0  0  0  0  0  0  0  0  0
    4.5963    0.9676   -0.5070 N   0  0  0  0  0  0  0  0  0  0  0  0
    3.3186    0.4949   -0.4001 C   0  0  0  0  0  0  0  0  0  0  0  0
    2.2733    1.0384   -0.9779 N   0  0  0  0  0  0  0  0  0  0  0  0
    1.2057    0.2515   -0.6150 C   0  0  0  0  0  0  0  0  0  0  0  0
   -0.1501    0.3696   -0.9531 C   0  0  0  0  0  0  0  0  0  0  0  0
   -1.0730   -0.5641   -0.4425 C   0  0  0  0  0  0  0  0  0  0  0  0
   -0.6121   -1.6084    0.3828 C   0  0  0  0  0  0  0  0  0  0  0  0
    0.7389   -1.7450    0.7293 C   0  0  0  0  0  0  0  0  0  0  0  0
    1.6122   -0.7910    0.2096 C   0  0  0  0  0  0  0  0  0  0  0  0
    2.9653   -0.6132    0.3277 N   0  0  0  0  0  0  0  0  0  0  0  0
   -2.4975   -0.4500   -0.7799 C   0  0  0  0  0  0  0  0  0  0  0  0
   -2.7958   -0.8318   -2.0500 N   0  0  0  0  0  0  0  0  0  0  0  0
   -4.0791   -0.7942   -2.4892 N   0  0  0  0  0  0  0  0  0  0  0  0
   -5.0399   -0.3730   -1.6488 C   0  0  0  0  0  0  0  0  0  0  0  0
   -6.2911   -0.3771   -2.1898 O   0  0  0  0  0  0  0  0  0  0  0  0
   -4.8136    0.0403   -0.3386 C   0  0  0  0  0  0  0  0  0  0  0  0
   -5.8439    0.4834    0.5193 C   0  0  0  0  0  0  0  0  0  0  0  0
   -5.5652    0.8962    1.8211 C   0  0  0  0  0  0  0  0  0  0  0  0
   -4.2557    0.8759    2.2851 C   0  0  0  0  0  0  0  0  0  0  0  0
   -3.2263    0.4388    1.4483 C   0  0  0  0  0  0  0  0  0  0  0  0
   -3.4836    0.0067    0.1228 C   0  0  0  0  0  0  0  0  0  0  0  0
    8.8173    1.1878    0.0865 H   0  0  0  0  0  0  0  0  0  0  0  0
    7.9095    0.5800    1.4856 H   0  0  0  0  0  0  0  0  0  0  0  0
    8.1660   -0.4629    0.0387 H   0  0  0  0  0  0  0  0  0  0  0  0
    4.7434    1.7890   -1.0737 H   0  0  0  0  0  0  0  0  0  0  0  0
   -0.4700    1.1776   -1.6038 H   0  0  0  0  0  0  0  0  0  0  0  0
   -1.3216   -2.3436    0.7631 H   0  0  0  0  0  0  0  0  0  0  0  0
    1.0806   -2.5562    1.3632 H   0  0  0  0  0  0  0  0  0  0  0  0
    3.6169   -1.1845    0.8504 H   0  0  0  0  0  0  0  0  0  0  0  0
   -6.1027   -0.7034   -3.0882 H   0  0  0  0  0  0  0  0  0  0  0  0
   -6.8734    0.5087    0.1649 H   0  0  0  0  0  0  0  0  0  0  0  0
   -6.3698    1.2366    2.4680 H   0  0  0  0  0  0  0  0  0  0  0  0
   -4.0312    1.2031    3.2974 H   0  0  0  0  0  0  0  0  0  0  0  0
   -2.2107    0.4447    1.8407 H   0  0  0  0  0  0  0  0  0  0  0  0
  1  2  1  0
  2  3  1  0
  3  4  2  0
  3  5  1  0
  5  6  1  0
  6  7  2  0
  7  8  1  0
  8  9  2  0
  9 10  1  0
 10 11  2  0
 11 12  1  0
 12 13  2  0
 13 14  1  0
 10 15  1  0
 15 16  2  0
 16 17  1  0
 17 18  2  0
 18 19  1  0
 18 20  1  0
 20 21  2  0
 21 22  1  0
 22 23  2  0
 23 24  1  0
 24 25  2  0
 14  6  1  0
 13  8  1  0
 25 15  1  0
 25 20  1  0
  1 26  1  0
  1 27  1  0
  1 28  1  0
  5 29  1  0
  9 30  1  0
 11 31  1  0
 12 32  1  0
 14 33  1  0
 19 34  1  0
 21 35  1  0
 22 36  1  0
 23 37  1  0
 24 38  1  0
M  END
>  <Unnamed: 0>  (141) 
803

>  <ID>  (141) 
TRAIN_0803

>  <Canonical_Smiles>  (141) 
COC(=O)Nc1nc2cc(ccc2[nH]1)c3nnc(O)c4ccccc34

>  <Inhibition>  (141) 
43.894918

>  <TDC_conf_true_inhibitor>  (141) 
0

>  <TDC_conf_non_inhibitor>  (141) 
1

>  <split>  (141) 
1

$$$$
141
     RDKit          3D

 32 35  0  0  0  0  0  0  0  0999 V2000
   -5.2215   -0.5890   -1.3913 C   0  0  0  0  0  0  0  0  0  0  0  0
   -5.0334   -0.0830   -0.0162 C   0  0  0  0  0  0  0  0  0  0  0  0
   -6.1703    0.1790    0.6935 O   0  0  0  0  0  0  0  0  0  0  0  0
   -5.7837    0.6278    1.9164 C   0  0  0  0  0  0  0  0  0  0  0  0
   -4.4120    0.6602    2.0074 C   0  0  0  0  0  0  0  0  0  0  0  0
   -3.9298    0.2012    0.7588 C   0  0  0  0  0  0  0  0  0  0  0  0
   -2.4522    0.0406    0.3240 C   0  0  0  0  0  0  0  0  0  0  0  0
   -2.0564   -0.4103   -0.9091 O   0  0  0  0  0  0  0  0  0  0  0  0
   -0.6901   -0.3843   -0.8085 C   0  0  0  0  0  0  0  0  0  0  0  0
    0.3391   -0.8432   -2.1305 S   0  0  0  0  0  0  0  0  0  0  0  0
    1.8103   -1.1661   -1.2058 C   0  0  0  0  0  0  0  0  0  0  0  0
    2.0154   -2.4280   -0.7678 N   0  0  0  0  0  0  0  0  0  0  0  0
    3.1360   -2.6785   -0.0812 C   0  0  0  0  0  0  0  0  0  0  0  0
    4.1124   -1.8198    0.2173 N   0  0  0  0  0  0  0  0  0  0  0  0
    3.9129   -0.5576   -0.2391 C   0  0  0  0  0  0  0  0  0  0  0  0
    4.8266    0.5334   -0.0445 C   0  0  0  0  0  0  0  0  0  0  0  0
    6.1158    0.4178    0.6959 C   0  0  0  0  0  0  0  0  0  0  0  0
    4.3529    1.6906   -0.6286 C   0  0  0  0  0  0  0  0  0  0  0  0
    2.8462    1.4718   -1.3958 S   0  0  0  0  0  0  0  0  0  0  0  0
    2.7774   -0.1914   -0.9591 C   0  0  0  0  0  0  0  0  0  0  0  0
   -0.2885    0.0564    0.3666 N   0  0  0  0  0  0  0  0  0  0  0  0
   -1.4245    0.3261    1.0994 N   0  0  0  0  0  0  0  0  0  0  0  0
   -6.2833   -0.6799   -1.6408 H   0  0  0  0  0  0  0  0  0  0  0  0
   -4.7629   -1.5764   -1.5017 H   0  0  0  0  0  0  0  0  0  0  0  0
   -4.7610    0.0901   -2.1153 H   0  0  0  0  0  0  0  0  0  0  0  0
   -6.5864    0.8781    2.5964 H   0  0  0  0  0  0  0  0  0  0  0  0
   -3.8322    0.9746    2.8642 H   0  0  0  0  0  0  0  0  0  0  0  0
    3.2669   -3.6974    0.2705 H   0  0  0  0  0  0  0  0  0  0  0  0
    6.6494    1.3736    0.7213 H   0  0  0  0  0  0  0  0  0  0  0  0
    6.7668   -0.3200    0.2157 H   0  0  0  0  0  0  0  0  0  0  0  0
    5.9358    0.1038    1.7292 H   0  0  0  0  0  0  0  0  0  0  0  0
    4.8244    2.6645   -0.6414 H   0  0  0  0  0  0  0  0  0  0  0  0
  1  2  1  0
  2  3  1  0
  3  4  1  0
  4  5  2  0
  5  6  1  0
  6  7  1  0
  7  8  1  0
  8  9  1  0
  9 10  1  0
 10 11  1  0
 11 12  2  0
 12 13  1  0
 13 14  2  0
 14 15  1  0
 15 16  1  0
 16 17  1  0
 16 18  2  0
 18 19  1  0
 19 20  1  0
  9 21  2  0
 21 22  1  0
  6  2  2  0
 22  7  2  0
 20 11  1  0
 20 15  2  0
  1 23  1  0
  1 24  1  0
  1 25  1  0
  4 26  1  0
  5 27  1  0
 13 28  1  0
 17 29  1  0
 17 30  1  0
 17 31  1  0
 18 32  1  0
M  END
>  <Unnamed: 0>  (142) 
808

>  <ID>  (142) 
TRAIN_0808

>  <Canonical_Smiles>  (142) 
Cc1occc1c2oc(Sc3ncnc4c(C)csc34)nn2

>  <Inhibition>  (142) 
20.690658

>  <TDC_conf_true_inhibitor>  (142) 
1

>  <TDC_conf_non_inhibitor>  (142) 
0

>  <split>  (142) 
1

$$$$
142
     RDKit          3D

 41 43  0  0  0  0  0  0  0  0999 V2000
   -5.8179    1.0757   -0.8346 C   0  0  0  0  0  0  0  0  0  0  0  0
   -4.9565    0.8491    0.3981 C   0  0  0  0  0  0  0  0  0  0  0  0
   -4.2518   -0.5123    0.4197 C   0  0  0  0  0  0  0  0  0  0  0  0
   -3.2711   -0.7785   -0.7288 C   0  0  0  0  0  0  0  0  0  0  0  0
   -2.0429    0.0706   -0.7012 C   0  0  0  0  0  0  0  0  0  0  0  0
   -2.1195    1.2971   -1.2513 N   0  0  0  0  0  0  0  0  0  0  0  0
   -0.8502    1.8322   -1.1951 O   0  0  0  0  0  0  0  0  0  0  0  0
   -0.0294    0.9285   -0.6288 C   0  0  0  0  0  0  0  0  0  0  0  0
    1.4151    1.2318   -0.5244 C   0  0  0  0  0  0  0  0  0  0  0  0
    2.0817    0.1803    0.3976 C   0  0  0  0  0  0  0  0  0  0  0  0
    1.5527   -1.2453    0.1073 C   0  0  0  0  0  0  0  0  0  0  0  0
    0.0361   -1.2989    0.3302 C   0  0  0  0  0  0  0  0  0  0  0  0
   -0.4172   -2.2860    1.0415 N   0  0  0  0  0  0  0  0  0  0  0  0
   -1.7744   -2.2074    1.3238 O   0  0  0  0  0  0  0  0  0  0  0  0
   -0.7175   -0.2096   -0.2684 C   0  0  0  0  0  0  0  0  0  0  0  0
    3.5947    0.2660    0.3233 C   0  0  0  0  0  0  0  0  0  0  0  0
    4.3009   -0.1276   -0.8238 C   0  0  0  0  0  0  0  0  0  0  0  0
    5.6929   -0.0288   -0.8715 C   0  0  0  0  0  0  0  0  0  0  0  0
    6.3966    0.4666    0.2236 C   0  0  0  0  0  0  0  0  0  0  0  0
    5.7092    0.8636    1.3678 C   0  0  0  0  0  0  0  0  0  0  0  0
    4.3174    0.7655    1.4177 C   0  0  0  0  0  0  0  0  0  0  0  0
   -5.2111    1.1527   -1.7409 H   0  0  0  0  0  0  0  0  0  0  0  0
   -6.3791    2.0103   -0.7332 H   0  0  0  0  0  0  0  0  0  0  0  0
   -6.5377    0.2616   -0.9665 H   0  0  0  0  0  0  0  0  0  0  0  0
   -4.2271    1.6610    0.4919 H   0  0  0  0  0  0  0  0  0  0  0  0
   -5.6001    0.9130    1.2841 H   0  0  0  0  0  0  0  0  0  0  0  0
   -5.0171   -1.2986    0.4041 H   0  0  0  0  0  0  0  0  0  0  0  0
   -3.7331   -0.6036    1.3809 H   0  0  0  0  0  0  0  0  0  0  0  0
   -2.9829   -1.8355   -0.7204 H   0  0  0  0  0  0  0  0  0  0  0  0
   -3.7811   -0.6457   -1.6908 H   0  0  0  0  0  0  0  0  0  0  0  0
    1.8511    1.2095   -1.5300 H   0  0  0  0  0  0  0  0  0  0  0  0
    1.5727    2.2395   -0.1233 H   0  0  0  0  0  0  0  0  0  0  0  0
    1.7758    0.4182    1.4281 H   0  0  0  0  0  0  0  0  0  0  0  0
    2.0419   -1.9751    0.7642 H   0  0  0  0  0  0  0  0  0  0  0  0
    1.7514   -1.5484   -0.9281 H   0  0  0  0  0  0  0  0  0  0  0  0
   -1.9196   -2.9895    1.8890 H   0  0  0  0  0  0  0  0  0  0  0  0
    3.7775   -0.5127   -1.6963 H   0  0  0  0  0  0  0  0  0  0  0  0
    6.2290   -0.3376   -1.7656 H   0  0  0  0  0  0  0  0  0  0  0  0
    7.4800    0.5441    0.1853 H   0  0  0  0  0  0  0  0  0  0  0  0
    6.2570    1.2516    2.2228 H   0  0  0  0  0  0  0  0  0  0  0  0
    3.8035    1.0831    2.3223 H   0  0  0  0  0  0  0  0  0  0  0  0
  1  2  1  0
  2  3  1  0
  3  4  1  0
  4  5  1  0
  5  6  2  0
  6  7  1  0
  7  8  1  0
  8  9  1  0
  9 10  1  0
 10 11  1  0
 11 12  1  0
 12 13  2  0
 13 14  1  0
 12 15  1  0
 10 16  1  0
 16 17  2  0
 17 18  1  0
 18 19  2  0
 19 20  1  0
 20 21  2  0
 15  5  1  0
 15  8  2  0
 21 16  1  0
  1 22  1  0
  1 23  1  0
  1 24  1  0
  2 25  1  0
  2 26  1  0
  3 27  1  0
  3 28  1  0
  4 29  1  0
  4 30  1  0
  9 31  1  0
  9 32  1  0
 10 33  1  0
 11 34  1  0
 11 35  1  0
 14 36  1  0
 17 37  1  0
 18 38  1  0
 19 39  1  0
 20 40  1  0
 21 41  1  0
M  END
>  <Unnamed: 0>  (143) 
809

>  <ID>  (143) 
TRAIN_0809

>  <Canonical_Smiles>  (143) 
CCCCc1noc2CC(C\C(=N\O)\c12)c3ccccc3

>  <Inhibition>  (143) 
14.534664

>  <TDC_conf_true_inhibitor>  (143) 
0

>  <TDC_conf_non_inhibitor>  (143) 
1

>  <split>  (143) 
1

$$$$
143
     RDKit          3D

 32 34  0  0  0  0  0  0  0  0999 V2000
    2.9279    2.3259   -0.0337 C   0  0  0  0  0  0  0  0  0  0  0  0
    2.6512    0.9341    0.4048 C   0  0  0  0  0  0  0  0  0  0  0  0
    3.6051    0.0031    0.2597 N   0  0  0  0  0  0  0  0  0  0  0  0
    3.0588   -1.1094    0.7744 N   0  0  0  0  0  0  0  0  0  0  0  0
    1.7859   -0.9367    1.2449 C   0  0  0  0  0  0  0  0  0  0  0  0
    1.0405   -2.0500    1.8776 C   0  0  0  0  0  0  0  0  0  0  0  0
    1.4808    0.3828    0.9872 C   0  0  0  0  0  0  0  0  0  0  0  0
   -0.0108    1.2155    1.3543 S   0  0  0  0  0  0  0  0  0  0  0  0
   -0.8809    1.0892   -0.2105 C   0  0  0  0  0  0  0  0  0  0  0  0
   -0.6070    2.1193   -1.1331 C   0  0  0  0  0  0  0  0  0  0  0  0
   -1.1098    2.0865   -2.4332 C   0  0  0  0  0  0  0  0  0  0  0  0
   -1.8964    1.0174   -2.8385 C   0  0  0  0  0  0  0  0  0  0  0  0
   -2.2026   -0.0059   -1.9371 C   0  0  0  0  0  0  0  0  0  0  0  0
   -1.7209    0.0277   -0.6110 C   0  0  0  0  0  0  0  0  0  0  0  0
   -2.1404   -1.0154    0.2623 N   0  0  0  0  0  0  0  0  0  0  0  0
   -2.3543   -0.9817    1.6175 C   0  0  0  0  0  0  0  0  0  0  0  0
   -2.7333   -2.1621    2.0554 N   0  0  0  0  0  0  0  0  0  0  0  0
   -2.8342   -2.9949    0.9722 N   0  0  0  0  0  0  0  0  0  0  0  0
   -2.4974   -2.2981   -0.0892 C   0  0  0  0  0  0  0  0  0  0  0  0
    2.8012    2.4162   -1.1164 H   0  0  0  0  0  0  0  0  0  0  0  0
    2.2633    3.0460    0.4478 H   0  0  0  0  0  0  0  0  0  0  0  0
    3.9531    2.6132    0.2133 H   0  0  0  0  0  0  0  0  0  0  0  0
    3.6195   -1.9559    0.7836 H   0  0  0  0  0  0  0  0  0  0  0  0
    1.7254   -2.7921    2.3088 H   0  0  0  0  0  0  0  0  0  0  0  0
    0.4180   -2.5580    1.1350 H   0  0  0  0  0  0  0  0  0  0  0  0
    0.4003   -1.6851    2.6873 H   0  0  0  0  0  0  0  0  0  0  0  0
    0.0245    2.9612   -0.8506 H   0  0  0  0  0  0  0  0  0  0  0  0
   -0.8781    2.8924   -3.1281 H   0  0  0  0  0  0  0  0  0  0  0  0
   -2.2904    0.9874   -3.8520 H   0  0  0  0  0  0  0  0  0  0  0  0
   -2.8726   -0.7910   -2.2855 H   0  0  0  0  0  0  0  0  0  0  0  0
   -2.2632   -0.0982    2.2311 H   0  0  0  0  0  0  0  0  0  0  0  0
   -2.4631   -2.6832   -1.0982 H   0  0  0  0  0  0  0  0  0  0  0  0
  1  2  1  0
  2  3  2  0
  3  4  1  0
  4  5  1  0
  5  6  1  0
  5  7  2  0
  7  8  1  0
  8  9  1  0
  9 10  2  0
 10 11  1  0
 11 12  2  0
 12 13  1  0
 13 14  2  0
 14 15  1  0
 15 16  1  0
 16 17  2  0
 17 18  1  0
 18 19  2  0
  7  2  1  0
 14  9  1  0
 19 15  1  0
  1 20  1  0
  1 21  1  0
  1 22  1  0
  4 23  1  0
  6 24  1  0
  6 25  1  0
  6 26  1  0
 10 27  1  0
 11 28  1  0
 12 29  1  0
 13 30  1  0
 16 31  1  0
 19 32  1  0
M  END
>  <Unnamed: 0>  (144) 
825

>  <ID>  (144) 
TRAIN_0825

>  <Canonical_Smiles>  (144) 
Cc1n[nH]c(C)c1Sc2ccccc2n3cnnc3

>  <Inhibition>  (144) 
49.919995

>  <TDC_conf_true_inhibitor>  (144) 
1

>  <TDC_conf_non_inhibitor>  (144) 
0

>  <split>  (144) 
1

$$$$
144
     RDKit          3D

 54 57  0  0  0  0  0  0  0  0999 V2000
    7.7919   -0.3489   -0.0181 C   0  0  0  0  0  0  0  0  0  0  0  0
    6.8375    0.6955    0.1001 O   0  0  0  0  0  0  0  0  0  0  0  0
    5.5074    0.3560    0.0530 C   0  0  0  0  0  0  0  0  0  0  0  0
    5.0309   -0.9512   -0.0959 C   0  0  0  0  0  0  0  0  0  0  0  0
    3.6528   -1.2035   -0.1421 C   0  0  0  0  0  0  0  0  0  0  0  0
    3.1350   -2.6234   -0.2453 C   0  0  0  0  0  0  0  0  0  0  0  0
    1.7795   -2.6997   -0.9526 C   0  0  0  0  0  0  0  0  0  0  0  0
    0.8686   -1.6770   -0.4688 N   0  0  0  0  0  0  0  0  0  0  0  0
   -0.4933   -1.7551   -0.4128 C   0  0  0  0  0  0  0  0  0  0  0  0
   -0.9654   -0.5436    0.0561 C   0  0  0  0  0  0  0  0  0  0  0  0
    0.1757    0.2837    0.2749 C   0  0  0  0  0  0  0  0  0  0  0  0
    1.3080   -0.4418   -0.0488 C   0  0  0  0  0  0  0  0  0  0  0  0
    2.7398   -0.1390   -0.0126 C   0  0  0  0  0  0  0  0  0  0  0  0
    3.2165    1.1671    0.1403 C   0  0  0  0  0  0  0  0  0  0  0  0
    4.5931    1.4232    0.1717 C   0  0  0  0  0  0  0  0  0  0  0  0
    5.1457    2.6736    0.3136 O   0  0  0  0  0  0  0  0  0  0  0  0
    4.2604    3.7728    0.4704 C   0  0  0  0  0  0  0  0  0  0  0  0
   -2.3771   -0.2360    0.2364 C   0  0  0  0  0  0  0  0  0  0  0  0
   -2.8602    1.0364   -0.1060 C   0  0  0  0  0  0  0  0  0  0  0  0
   -4.2105    1.3534    0.0590 C   0  0  0  0  0  0  0  0  0  0  0  0
   -4.7753    2.5639   -0.2517 O   0  0  0  0  0  0  0  0  0  0  0  0
   -3.8987    3.6182   -0.6235 C   0  0  0  0  0  0  0  0  0  0  0  0
   -5.0803    0.3713    0.5623 C   0  0  0  0  0  0  0  0  0  0  0  0
   -6.4066    0.6865    0.7668 O   0  0  0  0  0  0  0  0  0  0  0  0
   -7.1626    0.3661   -0.3995 C   0  0  0  0  0  0  0  0  0  0  0  0
   -4.6106   -0.8989    0.9366 C   0  0  0  0  0  0  0  0  0  0  0  0
   -5.5438   -1.7686    1.4403 O   0  0  0  0  0  0  0  0  0  0  0  0
   -5.0646   -2.9738    2.0205 C   0  0  0  0  0  0  0  0  0  0  0  0
   -3.2572   -1.1959    0.7600 C   0  0  0  0  0  0  0  0  0  0  0  0
    7.7066   -0.8552   -0.9853 H   0  0  0  0  0  0  0  0  0  0  0  0
    8.7882    0.1008    0.0339 H   0  0  0  0  0  0  0  0  0  0  0  0
    7.7049   -1.0592    0.8106 H   0  0  0  0  0  0  0  0  0  0  0  0
    5.7122   -1.7917   -0.1737 H   0  0  0  0  0  0  0  0  0  0  0  0
    3.0436   -3.0202    0.7739 H   0  0  0  0  0  0  0  0  0  0  0  0
    3.8513   -3.2552   -0.7833 H   0  0  0  0  0  0  0  0  0  0  0  0
    1.8903   -2.5256   -2.0296 H   0  0  0  0  0  0  0  0  0  0  0  0
    1.3172   -3.6804   -0.7998 H   0  0  0  0  0  0  0  0  0  0  0  0
   -1.0142   -2.6509   -0.7250 H   0  0  0  0  0  0  0  0  0  0  0  0
    0.1646    1.2984    0.6506 H   0  0  0  0  0  0  0  0  0  0  0  0
    2.4984    1.9738    0.2276 H   0  0  0  0  0  0  0  0  0  0  0  0
    3.6337    3.9046   -0.4177 H   0  0  0  0  0  0  0  0  0  0  0  0
    4.8667    4.6765    0.5851 H   0  0  0  0  0  0  0  0  0  0  0  0
    3.6514    3.6650    1.3739 H   0  0  0  0  0  0  0  0  0  0  0  0
   -2.1646    1.7604   -0.5168 H   0  0  0  0  0  0  0  0  0  0  0  0
   -3.1651    3.8225    0.1635 H   0  0  0  0  0  0  0  0  0  0  0  0
   -3.4069    3.4015   -1.5773 H   0  0  0  0  0  0  0  0  0  0  0  0
   -4.5010    4.5217   -0.7588 H   0  0  0  0  0  0  0  0  0  0  0  0
   -8.2066    0.6283   -0.2035 H   0  0  0  0  0  0  0  0  0  0  0  0
   -6.8266    0.9457   -1.2662 H   0  0  0  0  0  0  0  0  0  0  0  0
   -7.1205   -0.7058   -0.6218 H   0  0  0  0  0  0  0  0  0  0  0  0
   -5.9195   -3.4956    2.4612 H   0  0  0  0  0  0  0  0  0  0  0  0
   -4.3477   -2.7727    2.8237 H   0  0  0  0  0  0  0  0  0  0  0  0
   -4.6322   -3.6302    1.2585 H   0  0  0  0  0  0  0  0  0  0  0  0
   -2.8608   -2.1678    1.0334 H   0  0  0  0  0  0  0  0  0  0  0  0
  1  2  1  0
  2  3  1  0
  3  4  2  0
  4  5  1  0
  5  6  1  0
  6  7  1  0
  7  8  1  0
  8  9  1  0
  9 10  2  0
 10 11  1  0
 11 12  2  0
 12 13  1  0
 13 14  1  0
 14 15  2  0
 15 16  1  0
 16 17  1  0
 10 18  1  0
 18 19  2  0
 19 20  1  0
 20 21  1  0
 21 22  1  0
 20 23  2  0
 23 24  1  0
 24 25  1  0
 23 26  1  0
 26 27  1  0
 27 28  1  0
 26 29  2  0
 15  3  1  0
 13  5  2  0
 12  8  1  0
 29 18  1  0
  1 30  1  0
  1 31  1  0
  1 32  1  0
  4 33  1  0
  6 34  1  0
  6 35  1  0
  7 36  1  0
  7 37  1  0
  9 38  1  0
 11 39  1  0
 14 40  1  0
 17 41  1  0
 17 42  1  0
 17 43  1  0
 19 44  1  0
 22 45  1  0
 22 46  1  0
 22 47  1  0
 25 48  1  0
 25 49  1  0
 25 50  1  0
 28 51  1  0
 28 52  1  0
 28 53  1  0
 29 54  1  0
M  END
>  <Unnamed: 0>  (145) 
843

>  <ID>  (145) 
TRAIN_0843

>  <Canonical_Smiles>  (145) 
COc1cc2CCn3cc(cc3c2cc1OC)c4cc(OC)c(OC)c(OC)c4

>  <Inhibition>  (145) 
70.54665

>  <TDC_conf_true_inhibitor>  (145) 
1

>  <TDC_conf_non_inhibitor>  (145) 
0

>  <split>  (145) 
1

$$$$
145
     RDKit          3D

 35 37  0  0  0  0  0  0  0  0999 V2000
   -1.3784   -1.6616   -1.7123 O   0  0  0  0  0  0  0  0  0  0  0  0
   -1.4346   -0.9476   -0.7178 C   0  0  0  0  0  0  0  0  0  0  0  0
   -0.5031   -0.9804    0.2956 N   0  0  0  0  0  0  0  0  0  0  0  0
    0.6378   -1.8894    0.2540 C   0  0  0  0  0  0  0  0  0  0  0  0
    1.3199   -1.9962    1.6187 C   0  0  0  0  0  0  0  0  0  0  0  0
    1.9177   -0.6753    2.0832 C   0  0  0  0  0  0  0  0  0  0  0  0
    2.5999    0.1500    1.0044 C   0  0  0  0  0  0  0  0  0  0  0  0
    3.2626    1.1913    1.4085 N   0  0  0  0  0  0  0  0  0  0  0  0
    3.8235    1.9813    0.4490 N   0  0  0  0  0  0  0  0  0  0  0  0
    3.7053    1.8033   -0.9034 C   0  0  0  0  0  0  0  0  0  0  0  0
    4.1907    2.5663   -1.7299 O   0  0  0  0  0  0  0  0  0  0  0  0
    2.9528    0.6092   -1.3272 C   0  0  0  0  0  0  0  0  0  0  0  0
    2.4276   -0.2279   -0.4239 C   0  0  0  0  0  0  0  0  0  0  0  0
    1.6839   -1.4746   -0.7930 C   0  0  0  0  0  0  0  0  0  0  0  0
   -2.5612    0.0052   -0.4887 C   0  0  0  0  0  0  0  0  0  0  0  0
   -3.7753   -0.3477   -0.9427 C   0  0  0  0  0  0  0  0  0  0  0  0
   -4.8567    0.4832   -0.7637 N   0  0  0  0  0  0  0  0  0  0  0  0
   -4.7911    1.7064   -0.1400 C   0  0  0  0  0  0  0  0  0  0  0  0
   -5.7676    2.4260    0.0251 O   0  0  0  0  0  0  0  0  0  0  0  0
   -3.4407    2.1188    0.3265 C   0  0  0  0  0  0  0  0  0  0  0  0
   -2.3922    1.3000    0.1479 C   0  0  0  0  0  0  0  0  0  0  0  0
   -0.7087   -0.4844    1.1536 H   0  0  0  0  0  0  0  0  0  0  0  0
    0.2473   -2.8772   -0.0221 H   0  0  0  0  0  0  0  0  0  0  0  0
    0.6080   -2.3533    2.3728 H   0  0  0  0  0  0  0  0  0  0  0  0
    2.1175   -2.7482    1.5611 H   0  0  0  0  0  0  0  0  0  0  0  0
    2.6400   -0.8661    2.8860 H   0  0  0  0  0  0  0  0  0  0  0  0
    1.1287   -0.0454    2.5134 H   0  0  0  0  0  0  0  0  0  0  0  0
    4.3347    2.7968    0.7700 H   0  0  0  0  0  0  0  0  0  0  0  0
    2.8793    0.4466   -2.3952 H   0  0  0  0  0  0  0  0  0  0  0  0
    2.4166   -2.2864   -0.8939 H   0  0  0  0  0  0  0  0  0  0  0  0
    1.2132   -1.3563   -1.7760 H   0  0  0  0  0  0  0  0  0  0  0  0
   -3.9665   -1.2876   -1.4535 H   0  0  0  0  0  0  0  0  0  0  0  0
   -5.7720    0.2073   -1.1003 H   0  0  0  0  0  0  0  0  0  0  0  0
   -3.3598    3.0968    0.7825 H   0  0  0  0  0  0  0  0  0  0  0  0
   -1.3991    1.6171    0.4477 H   0  0  0  0  0  0  0  0  0  0  0  0
  1  2  2  0
  2  3  1  0
  3  4  1  0
  4  5  1  0
  5  6  1  0
  6  7  1  0
  7  8  2  0
  8  9  1  0
  9 10  1  0
 10 11  2  0
 10 12  1  0
 12 13  2  0
 13 14  1  0
  2 15  1  0
 15 16  2  0
 16 17  1  0
 17 18  1  0
 18 19  2  0
 18 20  1  0
 20 21  2  0
 14  4  1  0
 13  7  1  0
 21 15  1  0
  3 22  1  0
  4 23  1  0
  5 24  1  0
  5 25  1  0
  6 26  1  0
  6 27  1  0
  9 28  1  0
 12 29  1  0
 14 30  1  0
 14 31  1  0
 16 32  1  0
 17 33  1  0
 20 34  1  0
 21 35  1  0
M  END
>  <Unnamed: 0>  (146) 
849

>  <ID>  (146) 
TRAIN_0849

>  <Canonical_Smiles>  (146) 
O=C(NC1CCC2=NNC(=O)C=C2C1)C3=CNC(=O)C=C3

>  <Inhibition>  (146) 
4.080784

>  <TDC_conf_true_inhibitor>  (146) 
0

>  <TDC_conf_non_inhibitor>  (146) 
1

>  <split>  (146) 
1

$$$$
146
     RDKit          3D

 45 48  0  0  0  0  0  0  0  0999 V2000
    6.9865   -1.1177   -0.6331 N   0  0  0  0  0  0  0  0  0  0  0  0
    6.0859   -0.0669   -1.5833 S   0  0  0  0  0  6  0  0  0  0  0  0
    5.3170   -0.8612   -2.5131 O   0  0  0  0  0  0  0  0  0  0  0  0
    6.9725    0.9981   -1.9914 O   0  0  0  0  0  0  0  0  0  0  0  0
    4.8897    0.7195   -0.5315 C   0  0  0  0  0  0  0  0  0  0  0  0
    4.4977    2.0367   -0.3998 C   0  0  0  0  0  0  0  0  0  0  0  0
    3.4769    2.2002    0.5797 C   0  0  0  0  0  0  0  0  0  0  0  0
    3.1118    0.9999    1.1598 C   0  0  0  0  0  0  0  0  0  0  0  0
    2.0734    0.7575    2.2142 C   0  0  0  0  0  0  0  0  0  0  0  0
    0.6854    0.9711    1.6375 C   0  0  0  0  0  0  0  0  0  0  0  0
    0.0028    1.9524    1.9248 O   0  0  0  0  0  0  0  0  0  0  0  0
    0.2637   -0.0239    0.7800 N   0  0  0  0  0  0  0  0  0  0  0  0
   -1.0653   -0.0092    0.1896 C   0  0  0  0  0  0  0  0  0  0  0  0
   -1.1805   -0.9975   -0.9883 C   0  0  0  0  0  0  0  0  0  0  0  0
   -2.3420   -1.9152   -0.5649 C   0  0  0  0  0  0  0  0  0  0  0  0
   -2.0519   -2.0500    0.9378 C   0  0  0  0  0  0  0  0  0  0  0  0
   -2.1335   -0.5307    1.1850 C   0  0  0  0  0  0  0  0  0  0  0  0
   -3.5754   -0.2616    0.7040 C   0  0  0  0  0  0  0  0  0  0  0  0
   -3.9891    1.1303    0.2381 C   0  0  0  0  0  0  0  0  0  0  0  0
   -4.8543    0.8564   -0.9889 C   0  0  0  0  0  0  0  0  0  0  0  0
   -4.1447   -0.3041   -1.6808 C   0  0  0  0  0  0  0  0  0  0  0  0
   -3.7055   -1.1929   -0.5240 C   0  0  0  0  0  0  0  0  0  0  0  0
    4.0267   -0.3054    0.5311 S   0  0  0  0  0  0  0  0  0  0  0  0
    6.4275   -1.8887   -0.2753 H   0  0  0  0  0  0  0  0  0  0  0  0
    7.5547   -0.6240    0.0528 H   0  0  0  0  0  0  0  0  0  0  0  0
    4.9241    2.8382   -0.9939 H   0  0  0  0  0  0  0  0  0  0  0  0
    3.0183    3.1526    0.8322 H   0  0  0  0  0  0  0  0  0  0  0  0
    2.2146    1.4527    3.0499 H   0  0  0  0  0  0  0  0  0  0  0  0
    2.1332   -0.2559    2.6277 H   0  0  0  0  0  0  0  0  0  0  0  0
    0.8540   -0.8357    0.6454 H   0  0  0  0  0  0  0  0  0  0  0  0
   -1.2528    1.0153   -0.1396 H   0  0  0  0  0  0  0  0  0  0  0  0
   -0.2661   -1.5940   -1.1074 H   0  0  0  0  0  0  0  0  0  0  0  0
   -1.3487   -0.4880   -1.9410 H   0  0  0  0  0  0  0  0  0  0  0  0
   -2.3675   -2.8582   -1.1178 H   0  0  0  0  0  0  0  0  0  0  0  0
   -1.0664   -2.4765    1.1542 H   0  0  0  0  0  0  0  0  0  0  0  0
   -2.8158   -2.6189    1.4775 H   0  0  0  0  0  0  0  0  0  0  0  0
   -1.9688   -0.2347    2.2234 H   0  0  0  0  0  0  0  0  0  0  0  0
   -4.2808   -0.6031    1.4757 H   0  0  0  0  0  0  0  0  0  0  0  0
   -3.1419    1.7619   -0.0410 H   0  0  0  0  0  0  0  0  0  0  0  0
   -4.5470    1.6677    1.0125 H   0  0  0  0  0  0  0  0  0  0  0  0
   -4.9412    1.7329   -1.6393 H   0  0  0  0  0  0  0  0  0  0  0  0
   -5.8634    0.5568   -0.6801 H   0  0  0  0  0  0  0  0  0  0  0  0
   -4.8094   -0.8339   -2.3691 H   0  0  0  0  0  0  0  0  0  0  0  0
   -3.3090    0.0796   -2.2698 H   0  0  0  0  0  0  0  0  0  0  0  0
   -4.4954   -1.9316   -0.3222 H   0  0  0  0  0  0  0  0  0  0  0  0
  1  2  1  0
  2  3  2  0
  2  4  2  0
  2  5  1  0
  5  6  2  0
  6  7  1  0
  7  8  2  0
  8  9  1  0
  9 10  1  0
 10 11  2  0
 10 12  1  0
 12 13  1  0
 13 14  1  0
 14 15  1  0
 15 16  1  0
 16 17  1  0
 17 18  1  0
 18 19  1  0
 19 20  1  0
 20 21  1  0
 21 22  1  0
  8 23  1  0
 23  5  1  0
 17 13  1  0
 22 15  1  0
 22 18  1  0
  1 24  1  0
  1 25  1  0
  6 26  1  0
  7 27  1  0
  9 28  1  0
  9 29  1  0
 12 30  1  0
 13 31  1  0
 14 32  1  0
 14 33  1  0
 15 34  1  0
 16 35  1  0
 16 36  1  0
 17 37  1  0
 18 38  1  0
 19 39  1  0
 19 40  1  0
 20 41  1  0
 20 42  1  0
 21 43  1  0
 21 44  1  0
 22 45  1  0
M  END
>  <Unnamed: 0>  (147) 
852

>  <ID>  (147) 
TRAIN_0852

>  <Canonical_Smiles>  (147) 
NS(=O)(=O)c1ccc(CC(=O)NC2CC3CC2C4CCCC34)s1

>  <Inhibition>  (147) 
29.916144

>  <TDC_conf_true_inhibitor>  (147) 
1

>  <TDC_conf_non_inhibitor>  (147) 
0

>  <split>  (147) 
1

$$$$
147
     RDKit          3D

 66 71  0  0  0  0  0  0  0  0999 V2000
   -6.5627    3.7764    0.8194 C   0  0  0  0  0  0  0  0  0  0  0  0
   -5.7038    2.5371    1.0145 C   0  0  0  0  0  0  0  0  0  0  0  0
   -5.3743    1.8718   -0.3259 C   0  0  0  0  0  0  0  0  0  0  0  0
   -4.5113    0.6947   -0.1621 N   0  0  0  0  0  0  0  0  0  0  0  0
   -5.0390   -0.5777    0.1025 C   0  0  0  0  0  0  0  0  0  0  0  0
   -4.2090   -1.6030    0.3973 C   0  0  0  0  0  0  0  0  0  0  0  0
   -4.7061   -2.9822    0.7785 C   0  0  0  0  0  0  0  0  0  0  0  0
   -6.1993   -3.0393    1.0924 C   0  0  0  0  0  0  0  0  0  0  0  0
   -6.9870   -2.2438    0.0697 C   0  0  0  0  0  0  0  0  0  0  0  0
   -6.5429   -0.7805    0.0593 C   0  0  0  0  0  0  0  0  0  0  0  0
   -2.7694   -1.4120    0.3372 C   0  0  0  0  0  0  0  0  0  0  0  0
   -2.2348   -0.2200    0.0223 C   0  0  0  0  0  0  0  0  0  0  0  0
   -0.7684   -0.1168   -0.1530 C   0  0  0  0  0  0  0  0  0  0  0  0
   -0.0085   -0.7761    0.5590 O   0  0  0  0  0  0  0  0  0  0  0  0
   -0.4067    0.6346   -1.2332 N   0  0  0  0  0  0  0  0  0  0  0  0
    0.8444    0.8394   -1.4259 C   0  0  0  0  0  0  0  0  0  0  0  0
    1.9714    0.4502   -0.7520 N   0  0  0  0  0  0  0  0  0  0  0  0
    3.1968    0.8030   -1.2953 C   0  0  0  0  0  0  0  0  0  0  0  0
    3.0571    1.5366   -2.4186 C   0  0  0  0  0  0  0  0  0  0  0  0
    1.3723    1.7896   -2.8381 S   0  0  0  0  0  0  0  0  0  0  0  0
    4.4937    0.3717   -0.6230 C   0  0  0  0  0  0  0  0  0  0  0  0
    4.5421   -1.1755   -0.4796 C   0  0  0  0  0  0  0  0  0  0  0  0
    5.8243   -1.6224    0.2447 C   0  0  0  0  0  0  0  0  0  0  0  0
    7.0484   -1.1680   -0.5636 C   0  0  0  0  0  0  0  0  0  0  0  0
    7.0478    0.3622   -0.6991 C   0  0  0  0  0  0  0  0  0  0  0  0
    7.0914    0.9996    0.6985 C   0  0  0  0  0  0  0  0  0  0  0  0
    5.8684    0.5540    1.5154 C   0  0  0  0  0  0  0  0  0  0  0  0
    5.8701   -0.9786    1.6411 C   0  0  0  0  0  0  0  0  0  0  0  0
    4.5842    1.0010    0.7953 C   0  0  0  0  0  0  0  0  0  0  0  0
    5.7619    0.8074   -1.4153 C   0  0  0  0  0  0  0  0  0  0  0  0
   -3.1295    0.9518   -0.1341 C   0  0  0  0  0  0  0  0  0  0  0  0
   -2.6609    2.0879   -0.1906 O   0  0  0  0  0  0  0  0  0  0  0  0
   -2.0298   -2.5580    0.5739 O   0  0  0  0  0  0  0  0  0  0  0  0
   -6.0302    4.5306    0.2284 H   0  0  0  0  0  0  0  0  0  0  0  0
   -7.4955    3.5331    0.3007 H   0  0  0  0  0  0  0  0  0  0  0  0
   -6.8131    4.2213    1.7883 H   0  0  0  0  0  0  0  0  0  0  0  0
   -6.2304    1.8321    1.6695 H   0  0  0  0  0  0  0  0  0  0  0  0
   -4.7791    2.8173    1.5353 H   0  0  0  0  0  0  0  0  0  0  0  0
   -6.2869    1.6096   -0.8688 H   0  0  0  0  0  0  0  0  0  0  0  0
   -4.8594    2.5973   -0.9691 H   0  0  0  0  0  0  0  0  0  0  0  0
   -4.4861   -3.6755   -0.0444 H   0  0  0  0  0  0  0  0  0  0  0  0
   -4.1730   -3.3489    1.6650 H   0  0  0  0  0  0  0  0  0  0  0  0
   -6.3857   -2.6382    2.0975 H   0  0  0  0  0  0  0  0  0  0  0  0
   -6.5343   -4.0835    1.0975 H   0  0  0  0  0  0  0  0  0  0  0  0
   -8.0588   -2.3028    0.2891 H   0  0  0  0  0  0  0  0  0  0  0  0
   -6.8415   -2.6805   -0.9269 H   0  0  0  0  0  0  0  0  0  0  0  0
   -6.9633   -0.3400   -0.8513 H   0  0  0  0  0  0  0  0  0  0  0  0
   -6.9942   -0.2699    0.9179 H   0  0  0  0  0  0  0  0  0  0  0  0
    1.8949   -0.1612    0.0545 H   0  0  0  0  0  0  0  0  0  0  0  0
    3.8504    1.9403   -3.0307 H   0  0  0  0  0  0  0  0  0  0  0  0
    4.4950   -1.6481   -1.4700 H   0  0  0  0  0  0  0  0  0  0  0  0
    3.6742   -1.5445    0.0822 H   0  0  0  0  0  0  0  0  0  0  0  0
    5.8311   -2.7148    0.3406 H   0  0  0  0  0  0  0  0  0  0  0  0
    7.9688   -1.4986   -0.0672 H   0  0  0  0  0  0  0  0  0  0  0  0
    7.0373   -1.6335   -1.5566 H   0  0  0  0  0  0  0  0  0  0  0  0
    7.9218    0.6806   -1.2800 H   0  0  0  0  0  0  0  0  0  0  0  0
    8.0133    0.7074    1.2152 H   0  0  0  0  0  0  0  0  0  0  0  0
    7.1069    2.0938    0.6125 H   0  0  0  0  0  0  0  0  0  0  0  0
    5.9077    1.0065    2.5133 H   0  0  0  0  0  0  0  0  0  0  0  0
    5.0089   -1.3056    2.2360 H   0  0  0  0  0  0  0  0  0  0  0  0
    6.7685   -1.3099    2.1765 H   0  0  0  0  0  0  0  0  0  0  0  0
    4.5658    2.0977    0.7250 H   0  0  0  0  0  0  0  0  0  0  0  0
    3.7167    0.7121    1.4045 H   0  0  0  0  0  0  0  0  0  0  0  0
    5.7829    1.8992   -1.5346 H   0  0  0  0  0  0  0  0  0  0  0  0
    5.7453    0.3760   -2.4257 H   0  0  0  0  0  0  0  0  0  0  0  0
   -1.0885   -2.3144    0.6932 H   0  0  0  0  0  0  0  0  0  0  0  0
  1  2  1  0
  2  3  1  0
  3  4  1  0
  4  5  1  0
  5  6  2  0
  6  7  1  0
  7  8  1  0
  8  9  1  0
  9 10  1  0
  6 11  1  0
 11 12  2  0
 12 13  1  0
 13 14  2  0
 13 15  1  0
 15 16  2  0
 16 17  1  0
 17 18  1  0
 18 19  2  0
 19 20  1  0
 18 21  1  0
 21 22  1  0
 22 23  1  0
 23 24  1  0
 24 25  1  0
 25 26  1  0
 26 27  1  0
 27 28  1  0
 27 29  1  0
 25 30  1  0
 12 31  1  0
 31 32  2  0
 11 33  1  0
 31  4  1  0
 10  5  1  0
 20 16  1  0
 29 21  1  0
 30 21  1  0
 28 23  1  0
  1 34  1  0
  1 35  1  0
  1 36  1  0
  2 37  1  0
  2 38  1  0
  3 39  1  0
  3 40  1  0
  7 41  1  0
  7 42  1  0
  8 43  1  0
  8 44  1  0
  9 45  1  0
  9 46  1  0
 10 47  1  0
 10 48  1  0
 17 49  1  0
 19 50  1  0
 22 51  1  0
 22 52  1  0
 23 53  1  0
 24 54  1  0
 24 55  1  0
 25 56  1  0
 26 57  1  0
 26 58  1  0
 27 59  1  0
 28 60  1  0
 28 61  1  0
 29 62  1  0
 29 63  1  0
 30 64  1  0
 30 65  1  0
 33 66  1  0
M  END
>  <Unnamed: 0>  (148) 
857

>  <ID>  (148) 
TRAIN_0857

>  <Canonical_Smiles>  (148) 
CCCN1C2=C(CCCC2)C(=C(C(=O)\N=C\3/NC(=CS3)C45CC6CC(CC(C6)C4)C5)C1=O)O

>  <Inhibition>  (148) 
5.610677

>  <TDC_conf_true_inhibitor>  (148) 
0

>  <TDC_conf_non_inhibitor>  (148) 
1

>  <split>  (148) 
1

$$$$
148
     RDKit          3D

 48 51  0  0  0  0  0  0  0  0999 V2000
   -3.1009    1.5060   -0.9251 C   0  0  0  0  0  0  0  0  0  0  0  0
   -3.3738    0.9925    0.4885 C   0  0  0  0  0  0  0  0  0  0  0  0
   -4.0140    2.0894    1.3418 C   0  0  0  0  0  0  0  0  0  0  0  0
   -4.2575   -0.2238    0.4410 C   0  0  0  0  0  0  0  0  0  0  0  0
   -5.5494   -0.2114    0.1630 N   0  0  0  0  0  0  0  0  0  0  0  0
   -5.9691   -1.5106    0.2313 C   0  0  0  0  0  0  0  0  0  0  0  0
   -4.9243   -2.3396    0.5513 C   0  0  0  0  0  0  0  0  0  0  0  0
   -3.8326   -1.5166    0.6675 N   0  0  0  0  0  0  0  0  0  0  0  0
   -2.4932   -1.9670    1.0216 C   0  0  0  0  0  0  0  0  0  0  0  0
   -1.5414   -1.9302   -0.1503 C   0  0  0  0  0  0  0  0  0  0  0  0
   -1.8116   -2.6380   -1.3290 C   0  0  0  0  0  0  0  0  0  0  0  0
   -0.9171   -2.5956   -2.3961 C   0  0  0  0  0  0  0  0  0  0  0  0
    0.2588   -1.8510   -2.2941 C   0  0  0  0  0  0  0  0  0  0  0  0
    0.5560   -1.1438   -1.1239 C   0  0  0  0  0  0  0  0  0  0  0  0
    1.7602   -0.4123   -1.1033 N   0  0  0  0  0  0  0  0  0  0  0  0
    2.2714    0.3501   -0.0687 C   0  0  0  0  0  0  0  0  0  0  0  0
    1.7566    0.5232    1.0275 O   0  0  0  0  0  0  0  0  0  0  0  0
    3.5400    0.9889   -0.4188 C   0  0  0  0  0  0  0  0  0  0  0  0
    3.7682    1.6875   -1.5997 C   0  0  0  0  0  0  0  0  0  0  0  0
    5.0311    2.2121   -1.5529 N   0  0  0  0  0  0  0  0  0  0  0  0
    5.6368    1.8525   -0.3841 C   0  0  0  0  0  0  0  0  0  0  0  0
    6.8902    2.2158   -0.0569 N   0  0  0  0  0  0  0  0  0  0  0  0
    7.2960    1.7398    1.1404 C   0  0  0  0  0  0  0  0  0  0  0  0
    6.5468    0.9385    1.9815 C   0  0  0  0  0  0  0  0  0  0  0  0
    5.2617    0.5980    1.5765 C   0  0  0  0  0  0  0  0  0  0  0  0
    4.2999   -0.4549    2.5114 Cl  0  0  0  0  0  0  0  0  0  0  0  0
    4.7489    1.0724    0.3554 C   0  0  0  0  0  0  0  0  0  0  0  0
   -0.3446   -1.1961   -0.0571 C   0  0  0  0  0  0  0  0  0  0  0  0
   -2.6302    0.7335   -1.5428 H   0  0  0  0  0  0  0  0  0  0  0  0
   -4.0260    1.8111   -1.4274 H   0  0  0  0  0  0  0  0  0  0  0  0
   -2.4295    2.3709   -0.9006 H   0  0  0  0  0  0  0  0  0  0  0  0
   -2.4140    0.7475    0.9532 H   0  0  0  0  0  0  0  0  0  0  0  0
   -4.9694    2.4245    0.9221 H   0  0  0  0  0  0  0  0  0  0  0  0
   -3.3536    2.9605    1.4114 H   0  0  0  0  0  0  0  0  0  0  0  0
   -4.2050    1.7307    2.3595 H   0  0  0  0  0  0  0  0  0  0  0  0
   -7.0015   -1.7786    0.0495 H   0  0  0  0  0  0  0  0  0  0  0  0
   -4.8681   -3.4089    0.6966 H   0  0  0  0  0  0  0  0  0  0  0  0
   -2.1524   -1.3412    1.8540 H   0  0  0  0  0  0  0  0  0  0  0  0
   -2.5645   -2.9936    1.4003 H   0  0  0  0  0  0  0  0  0  0  0  0
   -2.7257   -3.2203   -1.4292 H   0  0  0  0  0  0  0  0  0  0  0  0
   -1.1384   -3.1405   -3.3105 H   0  0  0  0  0  0  0  0  0  0  0  0
    0.9357   -1.8335   -3.1443 H   0  0  0  0  0  0  0  0  0  0  0  0
    2.3318   -0.4705   -1.9353 H   0  0  0  0  0  0  0  0  0  0  0  0
    3.1220    1.8926   -2.4438 H   0  0  0  0  0  0  0  0  0  0  0  0
    5.4726    2.7910   -2.2534 H   0  0  0  0  0  0  0  0  0  0  0  0
    8.3065    2.0295    1.4208 H   0  0  0  0  0  0  0  0  0  0  0  0
    6.9566    0.5823    2.9190 H   0  0  0  0  0  0  0  0  0  0  0  0
   -0.1403   -0.6629    0.8669 H   0  0  0  0  0  0  0  0  0  0  0  0
  1  2  1  0
  2  3  1  0
  2  4  1  0
  4  5  2  0
  5  6  1  0
  6  7  2  0
  7  8  1  0
  8  9  1  0
  9 10  1  0
 10 11  2  0
 11 12  1  0
 12 13  2  0
 13 14  1  0
 14 15  1  0
 15 16  1  0
 16 17  2  0
 16 18  1  0
 18 19  2  0
 19 20  1  0
 20 21  1  0
 21 22  2  0
 22 23  1  0
 23 24  2  0
 24 25  1  0
 25 26  1  0
 25 27  2  0
 14 28  2  0
  8  4  1  0
 28 10  1  0
 27 18  1  0
 27 21  1  0
  1 29  1  0
  1 30  1  0
  1 31  1  0
  2 32  1  0
  3 33  1  0
  3 34  1  0
  3 35  1  0
  6 36  1  0
  7 37  1  0
  9 38  1  0
  9 39  1  0
 11 40  1  0
 12 41  1  0
 13 42  1  0
 15 43  1  0
 19 44  1  0
 20 45  1  0
 23 46  1  0
 24 47  1  0
 28 48  1  0
M  END
>  <Unnamed: 0>  (149) 
861

>  <ID>  (149) 
TRAIN_0861

>  <Canonical_Smiles>  (149) 
CC(C)c1nccn1Cc2cccc(NC(=O)c3c[nH]c4nccc(Cl)c34)c2

>  <Inhibition>  (149) 
63.272948

>  <TDC_conf_true_inhibitor>  (149) 
1

>  <TDC_conf_non_inhibitor>  (149) 
0

>  <split>  (149) 
1

$$$$
149
     RDKit          3D

 40 42  0  0  0  0  0  0  0  0999 V2000
   -6.5956   -1.8990   -1.8793 F   0  0  0  0  0  0  0  0  0  0  0  0
   -5.9697   -1.1500   -0.9622 C   0  0  0  0  0  0  0  0  0  0  0  0
   -6.6576   -0.1204   -0.3379 C   0  0  0  0  0  0  0  0  0  0  0  0
   -5.9934    0.6449    0.6088 C   0  0  0  0  0  0  0  0  0  0  0  0
   -6.6419    1.6438    1.2216 F   0  0  0  0  0  0  0  0  0  0  0  0
   -4.6623    0.3921    0.9384 C   0  0  0  0  0  0  0  0  0  0  0  0
   -3.9673   -0.6539    0.3124 C   0  0  0  0  0  0  0  0  0  0  0  0
   -2.5276   -0.9379    0.6573 C   0  0  0  0  0  0  0  0  0  0  0  0
   -1.4575    0.0422   -0.4071 S   0  0  0  0  0  6  0  0  0  0  0  0
   -1.6102   -0.4131   -1.7736 O   0  0  0  0  0  0  0  0  0  0  0  0
   -1.5778    1.4443   -0.0643 O   0  0  0  0  0  0  0  0  0  0  0  0
    0.0852   -0.4578    0.1035 N   0  0  0  0  0  0  0  0  0  0  0  0
    0.4877   -0.1249    1.4956 C   0  0  0  0  0  0  0  0  0  0  0  0
    2.0057   -0.0473    1.4436 C   0  0  0  0  0  0  0  0  0  0  0  0
    2.2434    0.6245    0.0952 C   0  0  0  0  0  0  0  0  0  0  0  0
    1.2082   -0.0604   -0.8078 C   0  0  0  0  0  0  0  0  0  0  0  0
    3.6661    0.5506   -0.4032 C   0  0  0  0  0  0  0  0  0  0  0  0
    4.3243   -0.6738   -0.5950 C   0  0  0  0  0  0  0  0  0  0  0  0
    5.6406   -0.7118   -1.0603 C   0  0  0  0  0  0  0  0  0  0  0  0
    6.3172    0.4724   -1.3406 C   0  0  0  0  0  0  0  0  0  0  0  0
    5.6780    1.6955   -1.1565 C   0  0  0  0  0  0  0  0  0  0  0  0
    4.3619    1.7347   -0.6915 C   0  0  0  0  0  0  0  0  0  0  0  0
   -4.6384   -1.4231   -0.6503 C   0  0  0  0  0  0  0  0  0  0  0  0
   -7.6914    0.0845   -0.5879 H   0  0  0  0  0  0  0  0  0  0  0  0
   -4.1806    1.0270    1.6782 H   0  0  0  0  0  0  0  0  0  0  0  0
   -2.3215   -0.6724    1.6982 H   0  0  0  0  0  0  0  0  0  0  0  0
   -2.2869   -1.9940    0.5013 H   0  0  0  0  0  0  0  0  0  0  0  0
    0.0741    0.8388    1.8103 H   0  0  0  0  0  0  0  0  0  0  0  0
    0.1551   -0.9024    2.1885 H   0  0  0  0  0  0  0  0  0  0  0  0
    2.4317   -1.0569    1.4815 H   0  0  0  0  0  0  0  0  0  0  0  0
    2.4207    0.5237    2.2802 H   0  0  0  0  0  0  0  0  0  0  0  0
    1.9518    1.6804    0.1953 H   0  0  0  0  0  0  0  0  0  0  0  0
    0.8890    0.6205   -1.6037 H   0  0  0  0  0  0  0  0  0  0  0  0
    1.5892   -0.9728   -1.2793 H   0  0  0  0  0  0  0  0  0  0  0  0
    3.8200   -1.6150   -0.3874 H   0  0  0  0  0  0  0  0  0  0  0  0
    6.1374   -1.6677   -1.2055 H   0  0  0  0  0  0  0  0  0  0  0  0
    7.3410    0.4421   -1.7038 H   0  0  0  0  0  0  0  0  0  0  0  0
    6.2034    2.6213   -1.3765 H   0  0  0  0  0  0  0  0  0  0  0  0
    3.8841    2.7034   -0.5579 H   0  0  0  0  0  0  0  0  0  0  0  0
   -4.1361   -2.2324   -1.1755 H   0  0  0  0  0  0  0  0  0  0  0  0
  1  2  1  0
  2  3  2  0
  3  4  1  0
  4  5  1  0
  4  6  2  0
  6  7  1  0
  7  8  1  0
  8  9  1  0
  9 10  2  0
  9 11  2  0
  9 12  1  0
 12 13  1  0
 13 14  1  0
 14 15  1  0
 15 16  1  0
 15 17  1  0
 17 18  2  0
 18 19  1  0
 19 20  2  0
 20 21  1  0
 21 22  2  0
  7 23  2  0
 23  2  1  0
 16 12  1  0
 22 17  1  0
  3 24  1  0
  6 25  1  0
  8 26  1  0
  8 27  1  0
 13 28  1  0
 13 29  1  0
 14 30  1  0
 14 31  1  0
 15 32  1  0
 16 33  1  0
 16 34  1  0
 18 35  1  0
 19 36  1  0
 20 37  1  0
 21 38  1  0
 22 39  1  0
 23 40  1  0
M  END
>  <Unnamed: 0>  (150) 
869

>  <ID>  (150) 
TRAIN_0869

>  <Canonical_Smiles>  (150) 
Fc1cc(F)cc(CS(=O)(=O)N2CCC(C2)c3ccccc3)c1

>  <Inhibition>  (150) 
22.70836

>  <TDC_conf_true_inhibitor>  (150) 
1

>  <TDC_conf_non_inhibitor>  (150) 
0

>  <split>  (150) 
1

$$$$
150
     RDKit          3D

 55 59  0  0  0  0  0  0  0  0999 V2000
    1.7952   -1.3766   -5.2848 C   0  0  0  0  0  0  0  0  0  0  0  0
    0.9862   -1.7254   -4.1679 O   0  0  0  0  0  0  0  0  0  0  0  0
    1.7644   -2.1681   -3.0445 C   0  0  0  0  0  0  0  0  0  0  0  0
    0.8035   -2.7090   -1.9861 C   0  0  0  0  0  0  0  0  0  0  0  0
    0.4809   -1.5073   -1.1024 C   0  0  0  0  0  0  0  0  0  0  0  0
    1.7499   -0.7953   -1.0826 N   0  0  0  0  0  0  0  0  0  0  0  0
    2.4866   -1.0165   -2.3197 C   0  0  0  0  0  0  0  0  0  0  0  0
    2.3303   -0.0301   -0.0815 C   0  0  0  0  0  0  0  0  0  0  0  0
    3.3733    0.5942   -0.2840 O   0  0  0  0  0  0  0  0  0  0  0  0
    1.7719   -0.0478    1.3066 C   0  0  0  0  0  0  0  0  0  0  0  0
    1.5621   -1.2736    1.9316 C   0  0  0  0  0  0  0  0  0  0  0  0
    1.2112   -1.2988    3.2789 C   0  0  0  0  0  0  0  0  0  0  0  0
    0.9505   -2.5188    3.9284 C   0  0  0  0  0  0  0  0  0  0  0  0
    0.5849   -2.5276    5.2706 C   0  0  0  0  0  0  0  0  0  0  0  0
    0.4877   -1.3336    5.9838 C   0  0  0  0  0  0  0  0  0  0  0  0
    0.7672   -0.1222    5.3531 C   0  0  0  0  0  0  0  0  0  0  0  0
    1.1331   -0.0854    3.9910 C   0  0  0  0  0  0  0  0  0  0  0  0
    1.4540    1.0936    3.2802 C   0  0  0  0  0  0  0  0  0  0  0  0
    1.4732    2.2713    4.0095 O   0  0  0  0  0  0  0  0  0  0  0  0
    1.4995    3.4365    3.1937 C   0  0  0  0  0  0  0  0  0  0  0  0
    1.7978    1.1282    1.9752 N   0  0  0  0  0  0  0  0  0  0  0  0
   -0.6316   -0.6182   -1.6013 C   0  0  0  0  0  0  0  0  0  0  0  0
   -1.2861    0.2897   -0.8956 N   0  0  0  0  0  0  0  0  0  0  0  0
   -2.3062    0.7463   -1.7155 C   0  0  0  0  0  0  0  0  0  0  0  0
   -2.2672    0.1056   -2.9320 C   0  0  0  0  0  0  0  0  0  0  0  0
   -1.1674   -0.7029   -2.8709 N   0  0  0  0  0  0  0  0  0  0  0  0
   -3.2662    1.7688   -1.3156 C   0  0  0  0  0  0  0  0  0  0  0  0
   -4.4098    2.0643   -2.0559 C   0  0  0  0  0  0  0  0  0  0  0  0
   -5.2837    3.0639   -1.6388 C   0  0  0  0  0  0  0  0  0  0  0  0
   -4.9846    3.7561   -0.4767 C   0  0  0  0  0  0  0  0  0  0  0  0
   -3.8974    3.4933    0.2885 N   0  0  0  0  0  0  0  0  0  0  0  0
   -3.0598    2.5111   -0.1563 C   0  0  0  0  0  0  0  0  0  0  0  0
    2.5676   -0.6401   -5.0392 H   0  0  0  0  0  0  0  0  0  0  0  0
    1.1449   -0.9502   -6.0611 H   0  0  0  0  0  0  0  0  0  0  0  0
    2.2711   -2.2829   -5.6869 H   0  0  0  0  0  0  0  0  0  0  0  0
    2.4675   -2.9384   -3.3726 H   0  0  0  0  0  0  0  0  0  0  0  0
    1.3459   -3.4419   -1.3683 H   0  0  0  0  0  0  0  0  0  0  0  0
   -0.0858   -3.2015   -2.3962 H   0  0  0  0  0  0  0  0  0  0  0  0
    0.1750   -1.8306   -0.1070 H   0  0  0  0  0  0  0  0  0  0  0  0
    3.5170   -1.2985   -2.0642 H   0  0  0  0  0  0  0  0  0  0  0  0
    2.5121   -0.0840   -2.8928 H   0  0  0  0  0  0  0  0  0  0  0  0
    1.7170   -2.1934    1.3817 H   0  0  0  0  0  0  0  0  0  0  0  0
    1.0156   -3.4657    3.3864 H   0  0  0  0  0  0  0  0  0  0  0  0
    0.3618   -3.4693    5.7770 H   0  0  0  0  0  0  0  0  0  0  0  0
    0.2023   -1.3576    7.0350 H   0  0  0  0  0  0  0  0  0  0  0  0
    0.7018    0.8036    5.9216 H   0  0  0  0  0  0  0  0  0  0  0  0
    1.5101    4.3117    3.8557 H   0  0  0  0  0  0  0  0  0  0  0  0
    2.4001    3.4825    2.5708 H   0  0  0  0  0  0  0  0  0  0  0  0
    0.5995    3.4859    2.5638 H   0  0  0  0  0  0  0  0  0  0  0  0
   -2.8740    0.1842   -3.8316 H   0  0  0  0  0  0  0  0  0  0  0  0
   -0.8030   -1.2824   -3.6251 H   0  0  0  0  0  0  0  0  0  0  0  0
   -4.6490    1.5257   -2.9742 H   0  0  0  0  0  0  0  0  0  0  0  0
   -6.1709    3.2910   -2.2128 H   0  0  0  0  0  0  0  0  0  0  0  0
   -5.6357    4.5537   -0.1111 H   0  0  0  0  0  0  0  0  0  0  0  0
   -2.1945    2.3326    0.4723 H   0  0  0  0  0  0  0  0  0  0  0  0
  1  2  1  0
  2  3  1  0
  3  4  1  0
  4  5  1  0
  5  6  1  0
  6  7  1  0
  6  8  1  0
  8  9  2  0
  8 10  1  0
 10 11  2  0
 11 12  1  0
 12 13  2  0
 13 14  1  0
 14 15  2  0
 15 16  1  0
 16 17  2  0
 17 18  1  0
 18 19  1  0
 19 20  1  0
 18 21  2  0
  5 22  1  0
 22 23  2  0
 23 24  1  0
 24 25  2  0
 25 26  1  0
 24 27  1  0
 27 28  2  0
 28 29  1  0
 29 30  2  0
 30 31  1  0
 31 32  2  0
  7  3  1  0
 21 10  1  0
 17 12  1  0
 26 22  1  0
 32 27  1  0
  1 33  1  0
  1 34  1  0
  1 35  1  0
  3 36  1  0
  4 37  1  0
  4 38  1  0
  5 39  1  0
  7 40  1  0
  7 41  1  0
 11 42  1  0
 13 43  1  0
 14 44  1  0
 15 45  1  0
 16 46  1  0
 20 47  1  0
 20 48  1  0
 20 49  1  0
 25 50  1  0
 26 51  1  0
 28 52  1  0
 29 53  1  0
 30 54  1  0
 32 55  1  0
M  END
>  <Unnamed: 0>  (151) 
874

>  <ID>  (151) 
TRAIN_0874

>  <Canonical_Smiles>  (151) 
COC1CC(N(C1)C(=O)c2cc3ccccc3c(OC)n2)c4nc(c[nH]4)c5cccnc5

>  <Inhibition>  (151) 
76.20023

>  <TDC_conf_true_inhibitor>  (151) 
1

>  <TDC_conf_non_inhibitor>  (151) 
0

>  <split>  (151) 
1

$$$$
151
     RDKit          3D

 49 51  0  0  0  0  0  0  0  0999 V2000
    0.5188   -0.9355   -1.2553 O   0  0  0  0  0  0  0  0  0  0  0  0
    0.9196    0.1452   -0.8489 C   0  0  0  0  0  0  0  0  0  0  0  0
    2.2186    0.4134   -0.4971 N   0  0  0  0  0  0  0  0  0  0  0  0
    3.2392   -0.5971   -0.6934 C   0  0  0  0  0  0  0  0  0  0  0  0
    4.5009   -0.2772    0.0904 C   0  0  0  0  0  0  0  0  0  0  0  0
    5.6325   -1.2551   -0.1466 C   0  0  0  0  0  0  0  0  0  0  0  0
    6.5120   -1.0098    1.0615 C   0  0  0  0  0  0  0  0  0  0  0  0
    5.6451   -0.6122    2.1332 O   0  0  0  0  0  0  0  0  0  0  0  0
    4.3319   -0.3835    1.5967 C   0  0  0  0  0  0  0  0  0  0  0  0
    0.1255    1.2496   -0.6647 N   0  0  0  0  0  0  0  0  0  0  0  0
   -1.3100    1.1723   -0.8720 C   0  0  0  0  0  0  0  0  0  0  0  0
   -2.1974    0.7927    0.3791 C   0  0  0  0  0  0  0  0  0  0  0  0
   -2.8005    2.0795    1.0186 C   0  0  0  0  0  0  0  0  0  0  0  0
   -1.6918    2.8584    1.7099 C   0  0  0  0  0  0  0  0  0  0  0  0
   -0.6162    1.6061    2.4458 S   0  0  0  0  0  0  0  0  0  0  0  0
   -1.3933    0.2034    1.5717 C   0  0  0  0  0  0  0  0  0  0  0  0
   -3.3303   -0.1033    0.0062 N   0  0  0  0  0  0  0  0  0  0  0  0
   -2.9539   -1.5084   -0.2529 C   0  0  0  0  0  0  0  0  0  0  0  0
   -4.1691   -2.3215   -0.7328 C   0  0  0  0  0  0  0  0  0  0  0  0
   -4.7439   -1.8466   -1.9562 O   0  0  0  0  0  0  0  0  0  0  0  0
   -4.3656   -0.5058   -2.2725 C   0  0  0  0  0  0  0  0  0  0  0  0
   -4.2524    0.4006   -1.0332 C   0  0  0  0  0  0  0  0  0  0  0  0
    2.4900    1.3707   -0.6721 H   0  0  0  0  0  0  0  0  0  0  0  0
    2.8349   -1.5758   -0.4087 H   0  0  0  0  0  0  0  0  0  0  0  0
    3.4551   -0.6329   -1.7675 H   0  0  0  0  0  0  0  0  0  0  0  0
    4.8522    0.7338   -0.1577 H   0  0  0  0  0  0  0  0  0  0  0  0
    6.1596   -1.0960   -1.0915 H   0  0  0  0  0  0  0  0  0  0  0  0
    5.2612   -2.2872   -0.1326 H   0  0  0  0  0  0  0  0  0  0  0  0
    7.0788   -1.8977    1.3551 H   0  0  0  0  0  0  0  0  0  0  0  0
    7.2154   -0.1902    0.8802 H   0  0  0  0  0  0  0  0  0  0  0  0
    3.9144    0.5261    2.0384 H   0  0  0  0  0  0  0  0  0  0  0  0
    3.7024   -1.2323    1.8860 H   0  0  0  0  0  0  0  0  0  0  0  0
    0.4505    1.8711    0.0652 H   0  0  0  0  0  0  0  0  0  0  0  0
   -1.6160    2.1487   -1.2661 H   0  0  0  0  0  0  0  0  0  0  0  0
   -1.4744    0.4620   -1.6892 H   0  0  0  0  0  0  0  0  0  0  0  0
   -3.2999    2.7238    0.2863 H   0  0  0  0  0  0  0  0  0  0  0  0
   -3.5645    1.8098    1.7628 H   0  0  0  0  0  0  0  0  0  0  0  0
   -1.1170    3.4546    0.9952 H   0  0  0  0  0  0  0  0  0  0  0  0
   -2.0890    3.5294    2.4766 H   0  0  0  0  0  0  0  0  0  0  0  0
   -0.6485   -0.5403    1.2782 H   0  0  0  0  0  0  0  0  0  0  0  0
   -2.0627   -0.2731    2.2980 H   0  0  0  0  0  0  0  0  0  0  0  0
   -2.1664   -1.5685   -1.0117 H   0  0  0  0  0  0  0  0  0  0  0  0
   -2.5765   -1.9760    0.6623 H   0  0  0  0  0  0  0  0  0  0  0  0
   -4.9572   -2.3145    0.0294 H   0  0  0  0  0  0  0  0  0  0  0  0
   -3.8818   -3.3664   -0.8899 H   0  0  0  0  0  0  0  0  0  0  0  0
   -5.1211   -0.1053   -2.9566 H   0  0  0  0  0  0  0  0  0  0  0  0
   -3.4184   -0.5349   -2.8233 H   0  0  0  0  0  0  0  0  0  0  0  0
   -3.9982    1.4109   -1.3688 H   0  0  0  0  0  0  0  0  0  0  0  0
   -5.2426    0.4649   -0.5656 H   0  0  0  0  0  0  0  0  0  0  0  0
  1  2  2  0
  2  3  1  0
  3  4  1  0
  4  5  1  0
  5  6  1  0
  6  7  1  0
  7  8  1  0
  8  9  1  0
  2 10  1  0
 10 11  1  0
 11 12  1  0
 12 13  1  0
 13 14  1  0
 14 15  1  0
 15 16  1  0
 12 17  1  0
 17 18  1  0
 18 19  1  0
 19 20  1  0
 20 21  1  0
 21 22  1  0
  9  5  1  0
 16 12  1  0
 22 17  1  0
  3 23  1  0
  4 24  1  0
  4 25  1  0
  5 26  1  0
  6 27  1  0
  6 28  1  0
  7 29  1  0
  7 30  1  0
  9 31  1  0
  9 32  1  0
 10 33  1  0
 11 34  1  0
 11 35  1  0
 13 36  1  0
 13 37  1  0
 14 38  1  0
 14 39  1  0
 16 40  1  0
 16 41  1  0
 18 42  1  0
 18 43  1  0
 19 44  1  0
 19 45  1  0
 21 46  1  0
 21 47  1  0
 22 48  1  0
 22 49  1  0
M  END
>  <Unnamed: 0>  (152) 
880

>  <ID>  (152) 
TRAIN_0880

>  <Canonical_Smiles>  (152) 
O=C(NCC1CCOC1)NCC2(CCSC2)N3CCOCC3

>  <Inhibition>  (152) 
26.501088

>  <TDC_conf_true_inhibitor>  (152) 
0

>  <TDC_conf_non_inhibitor>  (152) 
1

>  <split>  (152) 
1

$$$$
152
     RDKit          3D

 39 40  0  0  0  0  0  0  0  0999 V2000
    7.9666   -0.8217    0.3906 F   0  0  0  0  0  0  0  0  0  0  0  0
    7.2216    0.1040   -0.2613 C   0  0  0  0  0  0  0  0  0  0  0  0
    7.7642    0.2626   -1.4886 F   0  0  0  0  0  0  0  0  0  0  0  0
    7.3473    1.2682    0.4110 F   0  0  0  0  0  0  0  0  0  0  0  0
    5.7672   -0.3561   -0.3408 C   0  0  0  0  0  0  0  0  0  0  0  0
    4.9343    0.5922   -1.0250 O   0  0  0  0  0  0  0  0  0  0  0  0
    3.6082    0.1242   -1.2701 C   0  0  0  0  0  0  0  0  0  0  0  0
    2.7453    0.0790   -0.0082 C   0  0  0  0  0  0  0  0  0  0  0  0
    1.3569   -0.2340   -0.2973 N   0  0  0  0  0  0  0  0  0  0  0  0
    0.4334   -0.1339    0.7170 C   0  0  0  0  0  0  0  0  0  0  0  0
    0.6898    0.2480    1.8494 O   0  0  0  0  0  0  0  0  0  0  0  0
   -0.8135   -0.5240    0.2927 N   0  0  0  0  0  0  0  0  0  0  0  0
   -1.9731   -0.4805    1.2001 C   0  0  0  0  0  0  0  0  0  0  0  0
   -2.5385    0.9325    1.4973 C   0  0  0  0  0  0  0  0  0  0  0  0
   -3.9355    0.2704    1.5340 C   0  0  0  0  0  0  0  0  0  0  0  0
   -5.0773    1.0303    1.0860 O   0  0  0  0  0  0  0  0  0  0  0  0
   -5.2299    1.2542   -0.3121 C   0  0  0  0  0  0  0  0  0  0  0  0
   -5.0319   -0.0358   -1.1001 C   0  0  0  0  0  0  0  0  0  0  0  0
   -3.6047   -0.5360   -0.9086 C   0  0  0  0  0  0  0  0  0  0  0  0
   -3.3629   -0.8159    0.5746 C   0  0  0  0  0  0  0  0  0  0  0  0
    5.7290   -1.3162   -0.8673 H   0  0  0  0  0  0  0  0  0  0  0  0
    5.3893   -0.4985    0.6764 H   0  0  0  0  0  0  0  0  0  0  0  0
    3.6390   -0.8545   -1.7641 H   0  0  0  0  0  0  0  0  0  0  0  0
    3.1576    0.8208   -1.9863 H   0  0  0  0  0  0  0  0  0  0  0  0
    2.7949    1.0403    0.5170 H   0  0  0  0  0  0  0  0  0  0  0  0
    3.1168   -0.6792    0.6900 H   0  0  0  0  0  0  0  0  0  0  0  0
    1.1899   -1.0226   -0.9059 H   0  0  0  0  0  0  0  0  0  0  0  0
   -0.9435   -0.4653   -0.7069 H   0  0  0  0  0  0  0  0  0  0  0  0
   -1.7791   -1.0653    2.1103 H   0  0  0  0  0  0  0  0  0  0  0  0
   -2.3999    1.6701    0.6989 H   0  0  0  0  0  0  0  0  0  0  0  0
   -2.2078    1.3736    2.4419 H   0  0  0  0  0  0  0  0  0  0  0  0
   -4.1560   -0.1393    2.5297 H   0  0  0  0  0  0  0  0  0  0  0  0
   -6.2414    1.6385   -0.4765 H   0  0  0  0  0  0  0  0  0  0  0  0
   -4.5241    2.0300   -0.6283 H   0  0  0  0  0  0  0  0  0  0  0  0
   -5.7376   -0.7975   -0.7477 H   0  0  0  0  0  0  0  0  0  0  0  0
   -5.2241    0.1429   -2.1632 H   0  0  0  0  0  0  0  0  0  0  0  0
   -2.9174    0.2261   -1.2933 H   0  0  0  0  0  0  0  0  0  0  0  0
   -3.4365   -1.4461   -1.4947 H   0  0  0  0  0  0  0  0  0  0  0  0
   -3.7167   -1.8237    0.8295 H   0  0  0  0  0  0  0  0  0  0  0  0
  1  2  1  0
  2  3  1  0
  2  4  1  0
  2  5  1  0
  5  6  1  0
  6  7  1  0
  7  8  1  0
  8  9  1  0
  9 10  1  0
 10 11  2  0
 10 12  1  0
 12 13  1  0
 13 14  1  0
 14 15  1  0
 15 16  1  0
 16 17  1  0
 17 18  1  0
 18 19  1  0
 19 20  1  0
 20 13  1  0
 20 15  1  0
  5 21  1  0
  5 22  1  0
  7 23  1  0
  7 24  1  0
  8 25  1  0
  8 26  1  0
  9 27  1  0
 12 28  1  0
 13 29  1  0
 14 30  1  0
 14 31  1  0
 15 32  1  0
 17 33  1  0
 17 34  1  0
 18 35  1  0
 18 36  1  0
 19 37  1  0
 19 38  1  0
 20 39  1  0
M  END
>  <Unnamed: 0>  (153) 
885

>  <ID>  (153) 
TRAIN_0885

>  <Canonical_Smiles>  (153) 
FC(F)(F)COCCNC(=O)NC1CC2OCCCC12

>  <Inhibition>  (153) 
23.470106

>  <TDC_conf_true_inhibitor>  (153) 
0

>  <TDC_conf_non_inhibitor>  (153) 
1

>  <split>  (153) 
1

$$$$
153
     RDKit          3D

 51 54  0  0  0  0  0  0  0  0999 V2000
   -6.8359   -2.2208    0.6648 C   0  0  0  0  0  0  0  0  0  0  0  0
   -5.4439   -1.9229    1.2003 C   0  0  0  0  0  0  0  0  0  0  0  0
   -5.2134   -0.4385    1.4954 C   0  0  0  0  0  0  0  0  0  0  0  0
   -5.1448    0.4660    0.2586 C   0  0  0  0  0  0  0  0  0  0  0  0
   -3.9859    0.1971   -0.5912 N   0  0  0  0  0  0  0  0  0  0  0  0
   -4.1511   -0.5070   -1.8044 C   0  0  0  0  0  0  0  0  0  0  0  0
   -5.2542   -0.8995   -2.1808 O   0  0  0  0  0  0  0  0  0  0  0  0
   -2.9268   -0.7306   -2.5684 C   0  0  0  0  0  0  0  0  0  0  0  0
   -2.8978   -1.5572   -4.0552 S   0  0  0  0  0  0  0  0  0  0  0  0
   -1.2001   -1.3507   -4.1966 C   0  0  0  0  0  0  0  0  0  0  0  0
   -0.6617   -0.6631   -3.1263 C   0  0  0  0  0  0  0  0  0  0  0  0
   -1.6689   -0.3126   -2.1931 C   0  0  0  0  0  0  0  0  0  0  0  0
   -1.5782    0.3839   -0.9718 N   0  0  0  0  0  0  0  0  0  0  0  0
   -0.5337    0.9406   -0.2698 C   0  0  0  0  0  0  0  0  0  0  0  0
    0.8930    0.9131   -0.6915 C   0  0  0  0  0  0  0  0  0  0  0  0
    1.8146    1.5621    0.3376 C   0  0  0  0  0  0  0  0  0  0  0  0
    3.2570    1.5013   -0.1128 C   0  0  0  0  0  0  0  0  0  0  0  0
    3.6060    1.0236   -1.1868 O   0  0  0  0  0  0  0  0  0  0  0  0
    4.1287    2.0430    0.8045 N   0  0  0  0  0  0  0  0  0  0  0  0
    5.5612    1.9838    0.6220 C   0  0  0  0  0  0  0  0  0  0  0  0
    6.1415    0.7913    1.3321 C   0  0  0  0  0  0  0  0  0  0  0  0
    6.1337   -0.4682    0.7248 C   0  0  0  0  0  0  0  0  0  0  0  0
    6.6526   -1.5468    1.4223 C   0  0  0  0  0  0  0  0  0  0  0  0
    7.1677   -1.4579    2.6669 N   0  0  0  0  0  0  0  0  0  0  0  0
    7.1623   -0.2355    3.2387 C   0  0  0  0  0  0  0  0  0  0  0  0
    6.6644    0.9030    2.6232 C   0  0  0  0  0  0  0  0  0  0  0  0
   -1.0105    1.4920    0.8315 N   0  0  0  0  0  0  0  0  0  0  0  0
   -2.3692    1.2943    0.8659 N   0  0  0  0  0  0  0  0  0  0  0  0
   -2.7091    0.6250   -0.2132 C   0  0  0  0  0  0  0  0  0  0  0  0
   -7.0082   -1.7486   -0.3058 H   0  0  0  0  0  0  0  0  0  0  0  0
   -6.9653   -3.3001    0.5366 H   0  0  0  0  0  0  0  0  0  0  0  0
   -7.6058   -1.8694    1.3591 H   0  0  0  0  0  0  0  0  0  0  0  0
   -5.3112   -2.4831    2.1340 H   0  0  0  0  0  0  0  0  0  0  0  0
   -4.6887   -2.2996    0.5021 H   0  0  0  0  0  0  0  0  0  0  0  0
   -4.2825   -0.3442    2.0675 H   0  0  0  0  0  0  0  0  0  0  0  0
   -6.0155   -0.0760    2.1501 H   0  0  0  0  0  0  0  0  0  0  0  0
   -6.0673    0.3836   -0.3251 H   0  0  0  0  0  0  0  0  0  0  0  0
   -5.0822    1.5133    0.5809 H   0  0  0  0  0  0  0  0  0  0  0  0
   -0.6806   -1.7445   -5.0606 H   0  0  0  0  0  0  0  0  0  0  0  0
    0.3965   -0.4452   -3.0586 H   0  0  0  0  0  0  0  0  0  0  0  0
    1.2040   -0.1277   -0.8433 H   0  0  0  0  0  0  0  0  0  0  0  0
    0.9952    1.4348   -1.6506 H   0  0  0  0  0  0  0  0  0  0  0  0
    1.7310    1.0462    1.3019 H   0  0  0  0  0  0  0  0  0  0  0  0
    1.5432    2.6140    0.4869 H   0  0  0  0  0  0  0  0  0  0  0  0
    3.7835    2.2623    1.7300 H   0  0  0  0  0  0  0  0  0  0  0  0
    5.8129    1.9526   -0.4442 H   0  0  0  0  0  0  0  0  0  0  0  0
    5.9802    2.9115    1.0276 H   0  0  0  0  0  0  0  0  0  0  0  0
    5.7267   -0.6079   -0.2725 H   0  0  0  0  0  0  0  0  0  0  0  0
    6.6650   -2.5411    0.9851 H   0  0  0  0  0  0  0  0  0  0  0  0
    7.5817   -0.1928    4.2399 H   0  0  0  0  0  0  0  0  0  0  0  0
    6.6901    1.8532    3.1453 H   0  0  0  0  0  0  0  0  0  0  0  0
  1  2  1  0
  2  3  1  0
  3  4  1  0
  4  5  1  0
  5  6  1  0
  6  7  2  0
  6  8  1  0
  8  9  1  0
  9 10  1  0
 10 11  2  0
 11 12  1  0
 12 13  1  0
 13 14  1  0
 14 15  1  0
 15 16  1  0
 16 17  1  0
 17 18  2  0
 17 19  1  0
 19 20  1  0
 20 21  1  0
 21 22  2  0
 22 23  1  0
 23 24  2  0
 24 25  1  0
 25 26  2  0
 14 27  2  0
 27 28  1  0
 28 29  2  0
 29  5  1  0
 12  8  2  0
 29 13  1  0
 26 21  1  0
  1 30  1  0
  1 31  1  0
  1 32  1  0
  2 33  1  0
  2 34  1  0
  3 35  1  0
  3 36  1  0
  4 37  1  0
  4 38  1  0
 10 39  1  0
 11 40  1  0
 15 41  1  0
 15 42  1  0
 16 43  1  0
 16 44  1  0
 19 45  1  0
 20 46  1  0
 20 47  1  0
 22 48  1  0
 23 49  1  0
 25 50  1  0
 26 51  1  0
M  END
>  <Unnamed: 0>  (154) 
887

>  <ID>  (154) 
TRAIN_0887

>  <Canonical_Smiles>  (154) 
CCCCN1C(=O)c2sccc2n3c(CCC(=O)NCc4ccncc4)nnc13

>  <Inhibition>  (154) 
70.28861

>  <TDC_conf_true_inhibitor>  (154) 
1

>  <TDC_conf_non_inhibitor>  (154) 
0

>  <split>  (154) 
1

$$$$
154
     RDKit          3D

 32 32  0  0  0  0  0  0  0  0999 V2000
   -3.5380   -0.7062   -1.6653 C   0  0  0  0  0  0  0  0  0  0  0  0
   -3.1877   -0.0569   -0.3136 C   0  0  0  0  0  0  0  0  0  0  0  0
   -3.4708    1.4502   -0.4058 C   0  0  0  0  0  0  0  0  0  0  0  0
   -4.0741   -0.6971    0.7672 C   0  0  0  0  0  0  0  0  0  0  0  0
   -1.7617   -0.3028   -0.0507 N   0  0  0  0  0  0  0  0  0  0  0  0
   -1.0904    0.1033    1.0891 C   0  0  0  0  0  0  0  0  0  0  0  0
   -1.6276    0.6373    2.0544 O   0  0  0  0  0  0  0  0  0  0  0  0
    0.3981   -0.1937    1.0603 C   0  0  0  0  0  0  0  0  0  0  0  0
    1.2131    0.8979   -0.1456 S   0  0  0  0  0  0  0  0  0  0  0  0
    2.8594    0.4089    0.0949 C   0  0  0  0  0  0  0  0  0  0  0  0
    3.1856   -0.6941    0.6733 N   0  0  0  0  0  0  0  0  0  0  0  0
    4.5215   -0.9585    0.7935 C   0  0  0  0  0  0  0  0  0  0  0  0
    5.4873   -0.1476    0.3448 C   0  0  0  0  0  0  0  0  0  0  0  0
    5.0844    1.1015   -0.3173 C   0  0  0  0  0  0  0  0  0  0  0  0
    5.9161    1.8864   -0.7546 O   0  0  0  0  0  0  0  0  0  0  0  0
    3.7448    1.3076   -0.4031 N   0  0  0  0  0  0  0  0  0  0  0  0
    4.8311   -2.1440    1.4220 O   0  0  0  0  0  0  0  0  0  0  0  0
   -2.9367   -0.2794   -2.4767 H   0  0  0  0  0  0  0  0  0  0  0  0
   -3.3406   -1.7845   -1.6476 H   0  0  0  0  0  0  0  0  0  0  0  0
   -4.5940   -0.5606   -1.9187 H   0  0  0  0  0  0  0  0  0  0  0  0
   -4.5148    1.6410   -0.6787 H   0  0  0  0  0  0  0  0  0  0  0  0
   -2.8330    1.9244   -1.1606 H   0  0  0  0  0  0  0  0  0  0  0  0
   -3.2824    1.9592    0.5452 H   0  0  0  0  0  0  0  0  0  0  0  0
   -3.9385   -0.2256    1.7454 H   0  0  0  0  0  0  0  0  0  0  0  0
   -5.1359   -0.6071    0.5111 H   0  0  0  0  0  0  0  0  0  0  0  0
   -3.8450   -1.7628    0.8827 H   0  0  0  0  0  0  0  0  0  0  0  0
   -1.1752   -0.4954   -0.8547 H   0  0  0  0  0  0  0  0  0  0  0  0
    0.5429   -1.2458    0.7939 H   0  0  0  0  0  0  0  0  0  0  0  0
    0.8079   -0.0239    2.0612 H   0  0  0  0  0  0  0  0  0  0  0  0
    6.5452   -0.3443    0.4329 H   0  0  0  0  0  0  0  0  0  0  0  0
    3.4137    2.1511   -0.8445 H   0  0  0  0  0  0  0  0  0  0  0  0
    5.7952   -2.2386    1.4688 H   0  0  0  0  0  0  0  0  0  0  0  0
  1  2  1  0
  2  3  1  0
  2  4  1  0
  2  5  1  0
  5  6  1  0
  6  7  2  0
  6  8  1  0
  8  9  1  0
  9 10  1  0
 10 11  2  0
 11 12  1  0
 12 13  2  0
 13 14  1  0
 14 15  2  0
 14 16  1  0
 12 17  1  0
 16 10  1  0
  1 18  1  0
  1 19  1  0
  1 20  1  0
  3 21  1  0
  3 22  1  0
  3 23  1  0
  4 24  1  0
  4 25  1  0
  4 26  1  0
  5 27  1  0
  8 28  1  0
  8 29  1  0
 13 30  1  0
 16 31  1  0
 17 32  1  0
M  END
>  <Unnamed: 0>  (155) 
899

>  <ID>  (155) 
TRAIN_0899

>  <Canonical_Smiles>  (155) 
CC(C)(C)NC(=O)CSC1=NC(=CC(=O)N1)O

>  <Inhibition>  (155) 
31.282806

>  <TDC_conf_true_inhibitor>  (155) 
0

>  <TDC_conf_non_inhibitor>  (155) 
1

>  <split>  (155) 
1

$$$$
155
     RDKit          3D

 37 41  0  0  0  0  0  0  0  0999 V2000
   -4.7447   -2.1083    0.5995 C   0  0  0  0  0  0  0  0  0  0  0  0
   -3.8159   -1.0087    0.4962 N   0  0  0  0  0  0  0  0  0  0  0  0
   -3.6733   -0.0566    1.4657 C   0  0  0  0  0  0  0  0  0  0  0  0
   -4.3131    0.0395    2.5019 O   0  0  0  0  0  0  0  0  0  0  0  0
   -2.5832    0.8930    1.0602 C   0  0  0  0  0  0  0  0  0  0  0  0
   -1.3593    0.7719    1.9626 C   0  0  0  0  0  0  0  0  0  0  0  0
   -0.7711   -0.4572    1.4527 O   0  0  0  0  0  0  0  0  0  0  0  0
   -0.6231   -0.0377    0.0749 C   0  0  0  0  0  0  0  0  0  0  0  0
    0.2043    1.2392    0.2234 C   0  0  0  0  0  0  0  0  0  0  0  0
   -0.3099    1.8084    1.5360 C   0  0  0  0  0  0  0  0  0  0  0  0
    0.7886    1.8383    2.4459 O   0  0  0  0  0  0  0  0  0  0  0  0
    1.9502    1.3682    1.7968 N   0  0  0  0  0  0  0  0  0  0  0  0
    1.6321    1.0177    0.5922 C   0  0  0  0  0  0  0  0  0  0  0  0
    2.6212    0.4565   -0.3613 C   0  0  0  0  0  0  0  0  0  0  0  0
    3.8857    0.0893    0.1187 C   0  0  0  0  0  0  0  0  0  0  0  0
    4.8461   -0.4427   -0.7473 C   0  0  0  0  0  0  0  0  0  0  0  0
    4.5505   -0.6096   -2.1028 C   0  0  0  0  0  0  0  0  0  0  0  0
    3.2904   -0.2399   -2.5862 C   0  0  0  0  0  0  0  0  0  0  0  0
    2.3281    0.2933   -1.7201 C   0  0  0  0  0  0  0  0  0  0  0  0
    5.5331   -1.1532   -2.9946 C   0  0  0  0  0  0  0  0  0  0  0  0
    6.3243   -1.5901   -3.7224 N   0  0  0  0  0  0  0  0  0  0  0  0
   -2.0654    0.3333   -0.2664 C   0  0  0  0  0  0  0  0  0  0  0  0
   -2.9053   -0.8862   -0.5132 C   0  0  0  0  0  0  0  0  0  0  0  0
   -2.7617   -1.6255   -1.4754 O   0  0  0  0  0  0  0  0  0  0  0  0
   -5.6475   -1.7910    1.1288 H   0  0  0  0  0  0  0  0  0  0  0  0
   -4.2642   -2.9103    1.1679 H   0  0  0  0  0  0  0  0  0  0  0  0
   -5.0040   -2.4821   -0.3947 H   0  0  0  0  0  0  0  0  0  0  0  0
   -2.9829    1.9080    0.9806 H   0  0  0  0  0  0  0  0  0  0  0  0
   -1.5437    0.6962    3.0366 H   0  0  0  0  0  0  0  0  0  0  0  0
   -0.1806   -0.8337   -0.5279 H   0  0  0  0  0  0  0  0  0  0  0  0
    0.1113    1.9318   -0.6175 H   0  0  0  0  0  0  0  0  0  0  0  0
   -0.7231    2.8182    1.4498 H   0  0  0  0  0  0  0  0  0  0  0  0
    4.1313    0.2111    1.1732 H   0  0  0  0  0  0  0  0  0  0  0  0
    5.8214   -0.7238   -0.3529 H   0  0  0  0  0  0  0  0  0  0  0  0
    3.0501   -0.3634   -3.6416 H   0  0  0  0  0  0  0  0  0  0  0  0
    1.3657    0.5764   -2.1353 H   0  0  0  0  0  0  0  0  0  0  0  0
   -2.1624    1.0297   -1.1043 H   0  0  0  0  0  0  0  0  0  0  0  0
  1  2  1  0
  2  3  1  0
  3  4  2  0
  3  5  1  0
  5  6  1  0
  6  7  1  0
  7  8  1  0
  8  9  1  0
  9 10  1  0
 10 11  1  0
 11 12  1  0
 12 13  2  0
 13 14  1  0
 14 15  2  0
 15 16  1  0
 16 17  2  0
 17 18  1  0
 18 19  2  0
 17 20  1  0
 20 21  3  0
  8 22  1  0
 22 23  1  0
 23 24  2  0
 23  2  1  0
 22  5  1  0
 10  6  1  0
 13  9  1  0
 19 14  1  0
  1 25  1  0
  1 26  1  0
  1 27  1  0
  5 28  1  0
  6 29  1  0
  8 30  1  0
  9 31  1  0
 10 32  1  0
 15 33  1  0
 16 34  1  0
 18 35  1  0
 19 36  1  0
 22 37  1  0
M  END
>  <Unnamed: 0>  (156) 
902

>  <ID>  (156) 
TRAIN_0902

>  <Canonical_Smiles>  (156) 
CN1C(=O)C2C3OC(C4C3ON=C4c5ccc(cc5)C#N)C2C1=O

>  <Inhibition>  (156) 
24.16464

>  <TDC_conf_true_inhibitor>  (156) 
0

>  <TDC_conf_non_inhibitor>  (156) 
0

>  <split>  (156) 
1

$$$$
156
     RDKit          3D

 33 34  0  0  0  0  0  0  0  0999 V2000
    3.5302    1.6206    1.9722 C   0  0  0  0  0  0  0  0  0  0  0  0
    4.2786    0.6182    1.2322 N   0  0  0  0  0  0  0  0  0  0  0  0
    3.5619   -0.0076    0.1899 C   0  0  0  0  0  0  0  0  0  0  0  0
    2.3460    0.4680   -0.1483 N   0  0  0  0  0  0  0  0  0  0  0  0
    1.6917   -0.1029   -1.1679 C   0  0  0  0  0  0  0  0  0  0  0  0
    0.4501    0.4340   -1.4683 N   0  0  0  0  0  0  0  0  0  0  0  0
   -0.5326   -0.5281   -1.9493 C   0  0  0  0  0  0  0  0  0  0  0  0
   -1.9207    0.1067   -2.0355 C   0  0  0  0  0  0  0  0  0  0  0  0
   -2.5430    0.2447   -0.7304 N   0  0  0  0  0  0  0  0  0  0  0  0
   -3.6383   -0.4286   -0.2701 C   0  0  0  0  0  0  0  0  0  0  0  0
   -3.8628    0.0231    1.0136 C   0  0  0  0  0  0  0  0  0  0  0  0
   -4.9293   -0.3810    1.9556 C   0  0  0  0  0  0  0  0  0  0  0  0
   -2.8399    0.9744    1.2256 C   0  0  0  0  0  0  0  0  0  0  0  0
   -2.0349    1.1091    0.1697 N   0  0  0  0  0  0  0  0  0  0  0  0
    2.1685   -1.1320   -1.8806 N   0  0  0  0  0  0  0  0  0  0  0  0
    3.3903   -1.5830   -1.5396 C   0  0  0  0  0  0  0  0  0  0  0  0
    4.1372   -1.0574   -0.5119 C   0  0  0  0  0  0  0  0  0  0  0  0
    5.8352   -1.7791   -0.1098 Br  0  0  0  0  0  0  0  0  0  0  0  0
    4.1698    2.0311    2.7602 H   0  0  0  0  0  0  0  0  0  0  0  0
    3.2301    2.4550    1.3290 H   0  0  0  0  0  0  0  0  0  0  0  0
    2.6464    1.1885    2.4542 H   0  0  0  0  0  0  0  0  0  0  0  0
    4.6848   -0.0907    1.8370 H   0  0  0  0  0  0  0  0  0  0  0  0
    0.1462    0.9522   -0.6398 H   0  0  0  0  0  0  0  0  0  0  0  0
   -0.5682   -1.4109   -1.2972 H   0  0  0  0  0  0  0  0  0  0  0  0
   -0.2476   -0.8589   -2.9557 H   0  0  0  0  0  0  0  0  0  0  0  0
   -2.5796   -0.5236   -2.6432 H   0  0  0  0  0  0  0  0  0  0  0  0
   -1.8895    1.1042   -2.4885 H   0  0  0  0  0  0  0  0  0  0  0  0
   -4.1591   -1.1557   -0.8776 H   0  0  0  0  0  0  0  0  0  0  0  0
   -5.6897    0.4030    2.0285 H   0  0  0  0  0  0  0  0  0  0  0  0
   -4.5170   -0.5557    2.9546 H   0  0  0  0  0  0  0  0  0  0  0  0
   -5.4197   -1.3031    1.6274 H   0  0  0  0  0  0  0  0  0  0  0  0
   -2.6506    1.5735    2.1075 H   0  0  0  0  0  0  0  0  0  0  0  0
    3.7554   -2.4078   -2.1437 H   0  0  0  0  0  0  0  0  0  0  0  0
  1  2  1  0
  2  3  1  0
  3  4  2  0
  4  5  1  0
  5  6  1  0
  6  7  1  0
  7  8  1  0
  8  9  1  0
  9 10  1  0
 10 11  2  0
 11 12  1  0
 11 13  1  0
 13 14  2  0
  5 15  2  0
 15 16  1  0
 16 17  2  0
 17 18  1  0
 17  3  1  0
 14  9  1  0
  1 19  1  0
  1 20  1  0
  1 21  1  0
  2 22  1  0
  6 23  1  0
  7 24  1  0
  7 25  1  0
  8 26  1  0
  8 27  1  0
 10 28  1  0
 12 29  1  0
 12 30  1  0
 12 31  1  0
 13 32  1  0
 16 33  1  0
M  END
>  <Unnamed: 0>  (157) 
905

>  <ID>  (157) 
TRAIN_0905

>  <Canonical_Smiles>  (157) 
CNc1nc(NCCn2cc(C)cn2)ncc1Br

>  <Inhibition>  (157) 
57.054154

>  <TDC_conf_true_inhibitor>  (157) 
1

>  <TDC_conf_non_inhibitor>  (157) 
0

>  <split>  (157) 
1

$$$$
157
     RDKit          3D

 41 43  0  0  0  0  0  0  0  0999 V2000
   -8.8300   -1.8972   -1.9103 F   0  0  0  0  0  0  0  0  0  0  0  0
   -7.5942   -1.4160   -2.1635 C   0  0  0  0  0  0  0  0  0  0  0  0
   -7.0050   -2.2342   -3.0621 F   0  0  0  0  0  0  0  0  0  0  0  0
   -7.7348   -0.2017   -2.7442 F   0  0  0  0  0  0  0  0  0  0  0  0
   -6.7711   -1.3075   -0.8831 C   0  0  0  0  0  0  0  0  0  0  0  0
   -5.4480   -0.7084   -1.0542 N   0  0  0  0  0  0  0  0  0  0  0  0
   -4.4792   -0.8210   -0.0722 C   0  0  0  0  0  0  0  0  0  0  0  0
   -4.6435   -1.5177    0.9261 O   0  0  0  0  0  0  0  0  0  0  0  0
   -3.2682   -0.0294   -0.3289 C   0  0  0  0  0  0  0  0  0  0  0  0
   -3.1339    0.7746   -1.4361 N   0  0  0  0  0  0  0  0  0  0  0  0
   -1.9396    1.3396   -1.3510 N   0  0  0  0  0  0  0  0  0  0  0  0
   -1.3895    0.8626   -0.2075 N   0  0  0  0  0  0  0  0  0  0  0  0
   -2.1899    0.0071    0.4732 N   0  0  0  0  0  0  0  0  0  0  0  0
   -0.0983    1.2303    0.2425 C   0  0  0  0  0  0  0  0  0  0  0  0
    0.6809    2.1263   -0.5026 C   0  0  0  0  0  0  0  0  0  0  0  0
    1.9563    2.4805   -0.0528 C   0  0  0  0  0  0  0  0  0  0  0  0
    2.4564    1.9436    1.1336 C   0  0  0  0  0  0  0  0  0  0  0  0
    3.7653    2.2609    1.5862 N   0  0  0  0  0  0  0  0  0  0  0  0
    5.1039    1.8127    0.6599 S   0  0  0  0  0  6  0  0  0  0  0  0
    5.0310    2.4569   -0.6331 O   0  0  0  0  0  0  0  0  0  0  0  0
    6.2567    1.9860    1.5189 O   0  0  0  0  0  0  0  0  0  0  0  0
    4.8769    0.0828    0.4287 C   0  0  0  0  0  0  0  0  0  0  0  0
    5.2970   -0.8331    1.3921 C   0  0  0  0  0  0  0  0  0  0  0  0
    5.1073   -2.1908    1.1517 C   0  0  0  0  0  0  0  0  0  0  0  0
    4.5147   -2.5716   -0.0436 C   0  0  0  0  0  0  0  0  0  0  0  0
    4.1141   -1.6992   -0.9962 N   0  0  0  0  0  0  0  0  0  0  0  0
    4.3153   -0.3828   -0.7463 C   0  0  0  0  0  0  0  0  0  0  0  0
    1.6807    1.0570    1.8817 C   0  0  0  0  0  0  0  0  0  0  0  0
    0.4046    0.6974    1.4387 C   0  0  0  0  0  0  0  0  0  0  0  0
   -7.3059   -0.6868   -0.1558 H   0  0  0  0  0  0  0  0  0  0  0  0
   -6.6501   -2.3017   -0.4394 H   0  0  0  0  0  0  0  0  0  0  0  0
   -5.3086   -0.0071   -1.7781 H   0  0  0  0  0  0  0  0  0  0  0  0
    0.3168    2.5597   -1.4328 H   0  0  0  0  0  0  0  0  0  0  0  0
    2.5473    3.1852   -0.6346 H   0  0  0  0  0  0  0  0  0  0  0  0
    3.9549    2.2199    2.5865 H   0  0  0  0  0  0  0  0  0  0  0  0
    5.7721   -0.5022    2.3118 H   0  0  0  0  0  0  0  0  0  0  0  0
    5.4200   -2.9374    1.8739 H   0  0  0  0  0  0  0  0  0  0  0  0
    4.3465   -3.6198   -0.2766 H   0  0  0  0  0  0  0  0  0  0  0  0
    3.9948    0.2870   -1.5401 H   0  0  0  0  0  0  0  0  0  0  0  0
    2.0584    0.6274    2.8056 H   0  0  0  0  0  0  0  0  0  0  0  0
   -0.1820   -0.0014    2.0338 H   0  0  0  0  0  0  0  0  0  0  0  0
  1  2  1  0
  2  3  1  0
  2  4  1  0
  2  5  1  0
  5  6  1  0
  6  7  1  0
  7  8  2  0
  7  9  1  0
  9 10  1  0
 10 11  2  0
 11 12  1  0
 12 13  1  0
 12 14  1  0
 14 15  2  0
 15 16  1  0
 16 17  2  0
 17 18  1  0
 18 19  1  0
 19 20  2  0
 19 21  2  0
 19 22  1  0
 22 23  2  0
 23 24  1  0
 24 25  2  0
 25 26  1  0
 26 27  2  0
 17 28  1  0
 28 29  2  0
 13  9  2  0
 29 14  1  0
 27 22  1  0
  5 30  1  0
  5 31  1  0
  6 32  1  0
 15 33  1  0
 16 34  1  0
 18 35  1  0
 23 36  1  0
 24 37  1  0
 25 38  1  0
 27 39  1  0
 28 40  1  0
 29 41  1  0
M  END
>  <Unnamed: 0>  (158) 
908

>  <ID>  (158) 
TRAIN_0908

>  <Canonical_Smiles>  (158) 
FC(F)(F)CNC(=O)c1nnn(n1)c2ccc(NS(=O)(=O)c3cccnc3)cc2

>  <Inhibition>  (158) 
26.712329

>  <TDC_conf_true_inhibitor>  (158) 
0

>  <TDC_conf_non_inhibitor>  (158) 
1

>  <split>  (158) 
1

$$$$
158
     RDKit          3D

 35 38  0  0  0  0  0  0  0  0999 V2000
   -6.6674    1.3829    0.1363 O   0  0  0  0  0  0  0  0  0  0  0  0
   -5.3949    0.9180    0.2798 C   0  0  0  0  0  0  0  0  0  0  0  0
   -4.3459    1.7656    0.6148 C   0  0  0  0  0  0  0  0  0  0  0  0
   -3.0584    1.2400    0.7508 C   0  0  0  0  0  0  0  0  0  0  0  0
   -2.8197   -0.1290    0.5497 C   0  0  0  0  0  0  0  0  0  0  0  0
   -3.8901   -0.9688    0.2158 C   0  0  0  0  0  0  0  0  0  0  0  0
   -5.1773   -0.4405    0.0808 C   0  0  0  0  0  0  0  0  0  0  0  0
   -1.4220   -0.6358    0.7098 C   0  0  0  0  0  0  0  0  0  0  0  0
   -0.5692    0.1215    1.1736 O   0  0  0  0  0  0  0  0  0  0  0  0
   -1.1258   -2.0712    0.3002 C   0  0  0  0  0  0  0  0  0  0  0  0
    0.6577   -2.4301    0.2878 S   0  0  0  0  0  0  0  0  0  0  0  0
    1.1487   -1.2383   -0.8626 C   0  0  0  0  0  0  0  0  0  0  0  0
    0.5023   -0.9629   -1.9752 N   0  0  0  0  0  0  0  0  0  0  0  0
    1.2606    0.0423   -2.5852 N   0  0  0  0  0  0  0  0  0  0  0  0
    2.3440    0.3423   -1.8552 C   0  0  0  0  0  0  0  0  0  0  0  0
    3.3939    1.1095   -1.8760 N   0  0  0  0  0  0  0  0  0  0  0  0
    4.0402    0.7809   -0.6912 C   0  0  0  0  0  0  0  0  0  0  0  0
    5.2362    1.2946   -0.1665 C   0  0  0  0  0  0  0  0  0  0  0  0
    5.7017    0.8055    1.0608 C   0  0  0  0  0  0  0  0  0  0  0  0
    4.9936   -0.1768    1.7578 C   0  0  0  0  0  0  0  0  0  0  0  0
    3.7988   -0.7088    1.2591 C   0  0  0  0  0  0  0  0  0  0  0  0
    3.3524   -0.2087    0.0329 C   0  0  0  0  0  0  0  0  0  0  0  0
    2.2780   -0.4540   -0.7647 N   0  0  0  0  0  0  0  0  0  0  0  0
   -6.6711    2.3412    0.2977 H   0  0  0  0  0  0  0  0  0  0  0  0
   -4.5048    2.8278    0.7736 H   0  0  0  0  0  0  0  0  0  0  0  0
   -2.2384    1.9072    1.0129 H   0  0  0  0  0  0  0  0  0  0  0  0
   -3.7609   -2.0352    0.0597 H   0  0  0  0  0  0  0  0  0  0  0  0
   -6.0113   -1.0881   -0.1785 H   0  0  0  0  0  0  0  0  0  0  0  0
   -1.5949   -2.7450    1.0233 H   0  0  0  0  0  0  0  0  0  0  0  0
   -1.5278   -2.2721   -0.6970 H   0  0  0  0  0  0  0  0  0  0  0  0
    1.0335    0.4302   -3.4968 H   0  0  0  0  0  0  0  0  0  0  0  0
    5.7831    2.0584   -0.7085 H   0  0  0  0  0  0  0  0  0  0  0  0
    6.6267    1.1995    1.4760 H   0  0  0  0  0  0  0  0  0  0  0  0
    5.3773   -0.5351    2.7115 H   0  0  0  0  0  0  0  0  0  0  0  0
    3.2512   -1.4670    1.8090 H   0  0  0  0  0  0  0  0  0  0  0  0
  1  2  1  0
  2  3  2  0
  3  4  1  0
  4  5  2  0
  5  6  1  0
  6  7  2  0
  5  8  1  0
  8  9  2  0
  8 10  1  0
 10 11  1  0
 11 12  1  0
 12 13  2  0
 13 14  1  0
 14 15  1  0
 15 16  2  0
 16 17  1  0
 17 18  2  0
 18 19  1  0
 19 20  2  0
 20 21  1  0
 21 22  2  0
 22 23  1  0
  7  2  1  0
 23 12  1  0
 23 15  1  0
 22 17  1  0
  1 24  1  0
  3 25  1  0
  4 26  1  0
  6 27  1  0
  7 28  1  0
 10 29  1  0
 10 30  1  0
 14 31  1  0
 18 32  1  0
 19 33  1  0
 20 34  1  0
 21 35  1  0
M  END
>  <Unnamed: 0>  (159) 
912

>  <ID>  (159) 
TRAIN_0912

>  <Canonical_Smiles>  (159) 
Oc1ccc(cc1)C(=O)CSc2n[nH]c3nc4ccccc4n23

>  <Inhibition>  (159) 
68.153886

>  <TDC_conf_true_inhibitor>  (159) 
1

>  <TDC_conf_non_inhibitor>  (159) 
0

>  <split>  (159) 
1

$$$$
159
     RDKit          3D

 54 58  0  0  0  0  0  0  0  0999 V2000
  -10.5504   -0.6449   -0.5045 C   0  0  0  0  0  0  0  0  0  0  0  0
   -9.2005   -0.2087    0.0351 C   0  0  0  0  0  0  0  0  0  0  0  0
   -8.1914   -0.7563   -0.8110 O   0  0  0  0  0  0  0  0  0  0  0  0
   -6.8905   -0.5023   -0.4758 C   0  0  0  0  0  0  0  0  0  0  0  0
   -6.4536    0.2732    0.5970 C   0  0  0  0  0  0  0  0  0  0  0  0
   -5.0836    0.4523    0.8259 C   0  0  0  0  0  0  0  0  0  0  0  0
   -4.1292   -0.1446   -0.0118 C   0  0  0  0  0  0  0  0  0  0  0  0
   -4.5787   -0.9174   -1.0904 C   0  0  0  0  0  0  0  0  0  0  0  0
   -5.9460   -1.0935   -1.3162 C   0  0  0  0  0  0  0  0  0  0  0  0
   -2.6527    0.0888    0.2336 C   0  0  0  0  0  0  0  0  0  0  0  0
   -2.1508    1.2895   -0.5698 C   0  0  0  0  0  0  0  0  0  0  0  0
   -0.7083    1.3073   -0.4880 N   0  0  0  0  0  0  0  0  0  0  0  0
    0.0194    2.3849   -0.8009 N   0  0  0  0  0  0  0  0  0  0  0  0
    1.2955    2.0475   -0.6442 N   0  0  0  0  0  0  0  0  0  0  0  0
    1.3458    0.7412   -0.2236 C   0  0  0  0  0  0  0  0  0  0  0  0
    0.0641    0.2476   -0.1157 C   0  0  0  0  0  0  0  0  0  0  0  0
   -0.5373   -1.0313    0.3044 C   0  0  0  0  0  0  0  0  0  0  0  0
   -1.8998   -1.0808   -0.1445 O   0  0  0  0  0  0  0  0  0  0  0  0
    2.6601   -0.0305    0.0895 C   0  0  0  0  0  0  0  0  0  0  0  0
    2.6822   -1.3323    0.5233 O   0  0  0  0  0  0  0  0  0  0  0  0
    4.0204   -1.6815    0.7008 N   0  0  0  0  0  0  0  0  0  0  0  0
    4.6734   -0.5638    0.3602 C   0  0  0  0  0  0  0  0  0  0  0  0
    3.8695    0.4784   -0.0207 N   0  0  0  0  0  0  0  0  0  0  0  0
    6.1633   -0.4681    0.3793 C   0  0  0  0  0  0  0  0  0  0  0  0
    6.6508    0.7567    1.1628 C   0  0  0  0  0  0  0  0  0  0  0  0
    8.1760    0.7795    1.2969 C   0  0  0  0  0  0  0  0  0  0  0  0
    8.9040    0.1163    0.1265 C   0  0  0  0  0  0  0  0  0  0  0  0
    8.1050    0.2132   -1.1653 C   0  0  0  0  0  0  0  0  0  0  0  0
    6.7433   -0.4776   -1.0494 C   0  0  0  0  0  0  0  0  0  0  0  0
  -10.6845   -0.2987   -1.5345 H   0  0  0  0  0  0  0  0  0  0  0  0
  -10.6228   -1.7373   -0.5239 H   0  0  0  0  0  0  0  0  0  0  0  0
  -11.3643   -0.2487    0.1098 H   0  0  0  0  0  0  0  0  0  0  0  0
   -9.1488    0.8863    0.0282 H   0  0  0  0  0  0  0  0  0  0  0  0
   -9.0861   -0.5846    1.0582 H   0  0  0  0  0  0  0  0  0  0  0  0
   -7.1511    0.7538    1.2749 H   0  0  0  0  0  0  0  0  0  0  0  0
   -4.7719    1.0635    1.6709 H   0  0  0  0  0  0  0  0  0  0  0  0
   -3.8679   -1.3951   -1.7622 H   0  0  0  0  0  0  0  0  0  0  0  0
   -6.2780   -1.7007   -2.1551 H   0  0  0  0  0  0  0  0  0  0  0  0
   -2.5002    0.2473    1.3107 H   0  0  0  0  0  0  0  0  0  0  0  0
   -2.3946    1.2045   -1.6351 H   0  0  0  0  0  0  0  0  0  0  0  0
   -2.5413    2.2353   -0.1810 H   0  0  0  0  0  0  0  0  0  0  0  0
   -0.0133   -1.8811   -0.1423 H   0  0  0  0  0  0  0  0  0  0  0  0
   -0.5137   -1.1433    1.3936 H   0  0  0  0  0  0  0  0  0  0  0  0
    6.5489   -1.3574    0.8995 H   0  0  0  0  0  0  0  0  0  0  0  0
    6.3231    1.6739    0.6544 H   0  0  0  0  0  0  0  0  0  0  0  0
    6.1996    0.7878    2.1626 H   0  0  0  0  0  0  0  0  0  0  0  0
    8.4744    0.2777    2.2259 H   0  0  0  0  0  0  0  0  0  0  0  0
    8.5034    1.8217    1.3956 H   0  0  0  0  0  0  0  0  0  0  0  0
    9.0809   -0.9412    0.3611 H   0  0  0  0  0  0  0  0  0  0  0  0
    9.8909    0.5758   -0.0009 H   0  0  0  0  0  0  0  0  0  0  0  0
    7.9543    1.2709   -1.4166 H   0  0  0  0  0  0  0  0  0  0  0  0
    8.6697   -0.2269   -1.9953 H   0  0  0  0  0  0  0  0  0  0  0  0
    6.8367   -1.5217   -1.3777 H   0  0  0  0  0  0  0  0  0  0  0  0
    6.0567   -0.0045   -1.7638 H   0  0  0  0  0  0  0  0  0  0  0  0
  1  2  1  0
  2  3  1  0
  3  4  1  0
  4  5  2  0
  5  6  1  0
  6  7  2  0
  7  8  1  0
  8  9  2  0
  7 10  1  0
 10 11  1  0
 11 12  1  0
 12 13  1  0
 13 14  2  0
 14 15  1  0
 15 16  2  0
 16 17  1  0
 17 18  1  0
 15 19  1  0
 19 20  1  0
 20 21  1  0
 21 22  2  0
 22 23  1  0
 22 24  1  0
 24 25  1  0
 25 26  1  0
 26 27  1  0
 27 28  1  0
 28 29  1  0
  9  4  1  0
 18 10  1  0
 16 12  1  0
 23 19  2  0
 29 24  1  0
  1 30  1  0
  1 31  1  0
  1 32  1  0
  2 33  1  0
  2 34  1  0
  5 35  1  0
  6 36  1  0
  8 37  1  0
  9 38  1  0
 10 39  1  0
 11 40  1  0
 11 41  1  0
 17 42  1  0
 17 43  1  0
 24 44  1  0
 25 45  1  0
 25 46  1  0
 26 47  1  0
 26 48  1  0
 27 49  1  0
 27 50  1  0
 28 51  1  0
 28 52  1  0
 29 53  1  0
 29 54  1  0
M  END
>  <Unnamed: 0>  (160) 
917

>  <ID>  (160) 
TRAIN_0917

>  <Canonical_Smiles>  (160) 
CCOc1ccc(cc1)C2Cn3nnc(c3CO2)c4onc(n4)C5CCCCC5

>  <Inhibition>  (160) 
42.0802

>  <TDC_conf_true_inhibitor>  (160) 
1

>  <TDC_conf_non_inhibitor>  (160) 
0

>  <split>  (160) 
1

$$$$
160
     RDKit          3D

 30 31  0  0  0  0  0  0  0  0999 V2000
   -3.8199   -0.1075   -1.2105 C   0  0  0  0  0  0  0  0  0  0  0  0
   -2.9958    0.4552   -0.0363 C   0  0  0  0  0  0  0  0  0  0  0  0
   -3.1621   -0.5005    1.1639 C   0  0  0  0  0  0  0  0  0  0  0  0
   -3.5550    1.8322    0.3708 C   0  0  0  0  0  0  0  0  0  0  0  0
   -1.5915    0.5967   -0.4450 N   0  0  0  0  0  0  0  0  0  0  0  0
   -0.4671    0.0178    0.0768 C   0  0  0  0  0  0  0  0  0  0  0  0
    0.5510    0.5130   -0.7012 C   0  0  0  0  0  0  0  0  0  0  0  0
    1.9496    0.2691   -0.6362 C   0  0  0  0  0  0  0  0  0  0  0  0
    2.5621   -0.5358    0.2485 C   0  0  0  0  0  0  0  0  0  0  0  0
    3.9672   -0.7813    0.3144 C   0  0  0  0  0  0  0  0  0  0  0  0
    4.5183   -1.5863    1.2095 N   0  0  0  0  0  0  0  0  0  0  0  0
    5.8907   -1.6402    1.0457 C   0  0  0  0  0  0  0  0  0  0  0  0
    6.3747   -0.8715    0.0218 C   0  0  0  0  0  0  0  0  0  0  0  0
    8.2121   -0.7335   -0.4552 Br  0  0  0  0  0  0  0  0  0  0  0  0
    5.1196   -0.0568   -0.7674 S   0  0  0  0  0  0  0  0  0  0  0  0
    0.0427    1.3530   -1.6464 N   0  0  0  0  0  0  0  0  0  0  0  0
   -1.2725    1.4000   -1.4838 N   0  0  0  0  0  0  0  0  0  0  0  0
   -4.8690   -0.2490   -0.9268 H   0  0  0  0  0  0  0  0  0  0  0  0
   -3.4269   -1.0768   -1.5392 H   0  0  0  0  0  0  0  0  0  0  0  0
   -3.8029    0.5636   -2.0769 H   0  0  0  0  0  0  0  0  0  0  0  0
   -4.2156   -0.5922    1.4529 H   0  0  0  0  0  0  0  0  0  0  0  0
   -2.6122   -0.1416    2.0417 H   0  0  0  0  0  0  0  0  0  0  0  0
   -2.7986   -1.5075    0.9282 H   0  0  0  0  0  0  0  0  0  0  0  0
   -2.9701    2.2693    1.1886 H   0  0  0  0  0  0  0  0  0  0  0  0
   -3.5328    2.5424   -0.4638 H   0  0  0  0  0  0  0  0  0  0  0  0
   -4.5955    1.7542    0.7062 H   0  0  0  0  0  0  0  0  0  0  0  0
   -0.4837   -0.6623    0.9138 H   0  0  0  0  0  0  0  0  0  0  0  0
    2.5267    0.8024   -1.3871 H   0  0  0  0  0  0  0  0  0  0  0  0
    1.9772   -1.0648    0.9954 H   0  0  0  0  0  0  0  0  0  0  0  0
    6.4793   -2.2614    1.7092 H   0  0  0  0  0  0  0  0  0  0  0  0
  1  2  1  0
  2  3  1  0
  2  4  1  0
  2  5  1  0
  5  6  1  0
  6  7  2  0
  7  8  1  0
  8  9  2  0
  9 10  1  0
 10 11  2  0
 11 12  1  0
 12 13  2  0
 13 14  1  0
 13 15  1  0
  7 16  1  0
 16 17  2  0
 17  5  1  0
 15 10  1  0
  1 18  1  0
  1 19  1  0
  1 20  1  0
  3 21  1  0
  3 22  1  0
  3 23  1  0
  4 24  1  0
  4 25  1  0
  4 26  1  0
  6 27  1  0
  8 28  1  0
  9 29  1  0
 12 30  1  0
M  END
>  <Unnamed: 0>  (161) 
922

>  <ID>  (161) 
TRAIN_0922

>  <Canonical_Smiles>  (161) 
CC(C)(C)n1cc(\C=C\c2ncc(Br)s2)nn1

>  <Inhibition>  (161) 
0.5

>  <TDC_conf_true_inhibitor>  (161) 
0

>  <TDC_conf_non_inhibitor>  (161) 
1

>  <split>  (161) 
1

$$$$
161
     RDKit          3D

 40 43  0  0  0  0  0  0  0  0999 V2000
   -0.7402    2.1900    0.6918 O   0  0  0  0  0  0  0  0  0  0  0  0
   -0.4232    1.0209    0.5144 C   0  0  0  0  0  0  0  0  0  0  0  0
   -1.2616   -0.0187    0.1595 N   0  0  0  0  0  0  0  0  0  0  0  0
   -2.6466    0.0415   -0.0721 C   0  0  0  0  0  0  0  0  0  0  0  0
   -3.2988   -1.1412   -0.4228 C   0  0  0  0  0  0  0  0  0  0  0  0
   -4.6739   -1.1381   -0.6640 C   0  0  0  0  0  0  0  0  0  0  0  0
   -5.3688    0.0623   -0.5467 C   0  0  0  0  0  0  0  0  0  0  0  0
   -4.7631    1.2302   -0.2073 N   0  0  0  0  0  0  0  0  0  0  0  0
   -3.4233    1.1923    0.0208 C   0  0  0  0  0  0  0  0  0  0  0  0
   -6.7671    0.0815   -0.7887 N   0  0  0  0  0  0  0  0  0  0  0  0
   -7.5985    1.1710   -0.7176 C   0  0  0  0  0  0  0  0  0  0  0  0
   -8.8335    0.8244   -1.0038 N   0  0  0  0  0  0  0  0  0  0  0  0
   -8.7185   -0.5110   -1.2498 C   0  0  0  0  0  0  0  0  0  0  0  0
   -7.4893   -1.0185   -1.1349 N   0  0  0  0  0  0  0  0  0  0  0  0
    0.9968    0.5981    0.6801 C   0  0  0  0  0  0  0  0  0  0  0  0
    1.9692    1.5228    1.0333 C   0  0  0  0  0  0  0  0  0  0  0  0
    3.2739    1.1797    1.1949 N   0  0  0  0  0  0  0  0  0  0  0  0
    3.5629   -0.1248    0.9905 C   0  0  0  0  0  0  0  0  0  0  0  0
    4.8525   -0.5906    1.1025 O   0  0  0  0  0  0  0  0  0  0  0  0
    5.8205    0.3680    1.5364 C   0  0  0  0  0  0  0  0  0  0  0  0
    6.6766    0.8707    0.4083 C   0  0  0  0  0  0  0  0  0  0  0  0
    7.0865   -0.0263   -0.7341 C   0  0  0  0  0  0  0  0  0  0  0  0
    6.1460    1.1226   -0.9818 C   0  0  0  0  0  0  0  0  0  0  0  0
    2.5857   -1.0486    0.6322 C   0  0  0  0  0  0  0  0  0  0  0  0
    1.2774   -0.7214    0.4682 N   0  0  0  0  0  0  0  0  0  0  0  0
   -0.7986   -0.9207    0.0611 H   0  0  0  0  0  0  0  0  0  0  0  0
   -2.7524   -2.0763   -0.5132 H   0  0  0  0  0  0  0  0  0  0  0  0
   -5.1770   -2.0617   -0.9367 H   0  0  0  0  0  0  0  0  0  0  0  0
   -3.0022    2.1565    0.2871 H   0  0  0  0  0  0  0  0  0  0  0  0
   -7.2440    2.1589   -0.4584 H   0  0  0  0  0  0  0  0  0  0  0  0
   -9.5603   -1.1354   -1.5222 H   0  0  0  0  0  0  0  0  0  0  0  0
    1.7314    2.5690    1.1971 H   0  0  0  0  0  0  0  0  0  0  0  0
    5.3993    1.2022    2.1093 H   0  0  0  0  0  0  0  0  0  0  0  0
    6.4770   -0.1624    2.2366 H   0  0  0  0  0  0  0  0  0  0  0  0
    7.4216    1.5665    0.7817 H   0  0  0  0  0  0  0  0  0  0  0  0
    6.6822   -1.0308   -0.7839 H   0  0  0  0  0  0  0  0  0  0  0  0
    8.1010    0.0593   -1.1069 H   0  0  0  0  0  0  0  0  0  0  0  0
    5.1121    0.8936   -1.2075 H   0  0  0  0  0  0  0  0  0  0  0  0
    6.5269    1.9850   -1.5179 H   0  0  0  0  0  0  0  0  0  0  0  0
    2.8412   -2.0895    0.4646 H   0  0  0  0  0  0  0  0  0  0  0  0
  1  2  2  0
  2  3  1  0
  3  4  1  0
  4  5  2  0
  5  6  1  0
  6  7  2  0
  7  8  1  0
  8  9  2  0
  7 10  1  0
 10 11  1  0
 11 12  2  0
 12 13  1  0
 13 14  2  0
  2 15  1  0
 15 16  2  0
 16 17  1  0
 17 18  2  0
 18 19  1  0
 19 20  1  0
 20 21  1  0
 21 22  1  0
 22 23  1  0
 18 24  1  0
 24 25  2  0
  9  4  1  0
 14 10  1  0
 25 15  1  0
 23 21  1  0
  3 26  1  0
  5 27  1  0
  6 28  1  0
  9 29  1  0
 11 30  1  0
 13 31  1  0
 16 32  1  0
 20 33  1  0
 20 34  1  0
 21 35  1  0
 22 36  1  0
 22 37  1  0
 23 38  1  0
 23 39  1  0
 24 40  1  0
M  END
>  <Unnamed: 0>  (162) 
928

>  <ID>  (162) 
TRAIN_0928

>  <Canonical_Smiles>  (162) 
O=C(Nc1ccc(nc1)n2cncn2)c3cnc(OCC4CC4)cn3

>  <Inhibition>  (162) 
55.439844

>  <TDC_conf_true_inhibitor>  (162) 
1

>  <TDC_conf_non_inhibitor>  (162) 
0

>  <split>  (162) 
1

$$$$
162
     RDKit          3D

 50 52  0  0  0  0  0  0  0  0999 V2000
   -6.7626    1.2393   -0.4077 C   0  0  0  0  0  0  0  0  0  0  0  0
   -7.1269   -0.2432   -0.3114 C   0  0  0  0  0  0  0  0  0  0  0  0
   -8.6456   -0.3984   -0.2129 C   0  0  0  0  0  0  0  0  0  0  0  0
   -6.4532   -0.9314    0.8861 C   0  0  0  0  0  0  0  0  0  0  0  0
   -5.0136   -1.0222    0.7358 N   0  0  0  0  0  0  0  0  0  0  0  0
   -4.1460   -0.1421    1.3557 C   0  0  0  0  0  0  0  0  0  0  0  0
   -4.5563    0.7545    2.0885 O   0  0  0  0  0  0  0  0  0  0  0  0
   -2.7459   -0.3411    1.0389 C   0  0  0  0  0  0  0  0  0  0  0  0
   -1.7013    1.0272    0.9818 S   0  0  0  0  0  0  0  0  0  0  0  0
   -0.4081    0.0083    0.5564 C   0  0  0  0  0  0  0  0  0  0  0  0
    0.7741    0.6596    0.3602 N   0  0  0  0  0  0  0  0  0  0  0  0
    1.9140    0.0120   -0.0565 C   0  0  0  0  0  0  0  0  0  0  0  0
    2.0426   -1.1704   -0.3413 O   0  0  0  0  0  0  0  0  0  0  0  0
    3.1364    0.9226   -0.1752 C   0  0  0  0  0  0  0  0  0  0  0  0
    4.3093    0.3540   -0.1149 N   0  0  0  0  0  0  0  0  0  0  0  0
    5.4385    1.1299   -0.2449 N   0  0  0  0  0  0  0  0  0  0  0  0
    5.3608    2.4775   -0.5437 C   0  0  0  0  0  0  0  0  0  0  0  0
    4.2302    3.1799   -0.6227 C   0  0  0  0  0  0  0  0  0  0  0  0
    3.0097    2.4181   -0.3514 C   0  0  0  0  0  0  0  0  0  0  0  0
    1.9167    2.9593   -0.2473 O   0  0  0  0  0  0  0  0  0  0  0  0
    6.6744    0.4119   -0.0969 C   0  0  0  0  0  0  0  0  0  0  0  0
    6.6979   -0.9980   -0.1833 C   0  0  0  0  0  0  0  0  0  0  0  0
    7.8855   -1.7236   -0.0442 C   0  0  0  0  0  0  0  0  0  0  0  0
    9.0722   -1.0488    0.1918 C   0  0  0  0  0  0  0  0  0  0  0  0
   10.2124   -1.7378    0.3274 F   0  0  0  0  0  0  0  0  0  0  0  0
    9.0912    0.3343    0.2955 C   0  0  0  0  0  0  0  0  0  0  0  0
    7.9008    1.0587    0.1549 C   0  0  0  0  0  0  0  0  0  0  0  0
   -0.6750   -1.2660    0.4739 N   0  0  0  0  0  0  0  0  0  0  0  0
   -2.0109   -1.4898    0.7749 C   0  0  0  0  0  0  0  0  0  0  0  0
   -2.4702   -2.9044    0.8022 C   0  0  0  0  0  0  0  0  0  0  0  0
   -5.6913    1.3737   -0.5862 H   0  0  0  0  0  0  0  0  0  0  0  0
   -7.0263    1.7742    0.5109 H   0  0  0  0  0  0  0  0  0  0  0  0
   -7.2928    1.7157   -1.2395 H   0  0  0  0  0  0  0  0  0  0  0  0
   -6.7949   -0.7341   -1.2354 H   0  0  0  0  0  0  0  0  0  0  0  0
   -9.1408    0.0577   -1.0767 H   0  0  0  0  0  0  0  0  0  0  0  0
   -9.0360    0.0784    0.6927 H   0  0  0  0  0  0  0  0  0  0  0  0
   -8.9281   -1.4562   -0.1881 H   0  0  0  0  0  0  0  0  0  0  0  0
   -6.8102   -1.9641    0.9698 H   0  0  0  0  0  0  0  0  0  0  0  0
   -6.7022   -0.4188    1.8221 H   0  0  0  0  0  0  0  0  0  0  0  0
   -4.6565   -1.6323    0.0146 H   0  0  0  0  0  0  0  0  0  0  0  0
    0.7587    1.6709    0.4600 H   0  0  0  0  0  0  0  0  0  0  0  0
    6.3030    2.9737   -0.7463 H   0  0  0  0  0  0  0  0  0  0  0  0
    4.1714    4.2332   -0.8497 H   0  0  0  0  0  0  0  0  0  0  0  0
    5.7784   -1.5500   -0.3721 H   0  0  0  0  0  0  0  0  0  0  0  0
    7.8823   -2.8061   -0.1186 H   0  0  0  0  0  0  0  0  0  0  0  0
   10.0291    0.8433    0.4938 H   0  0  0  0  0  0  0  0  0  0  0  0
    7.9572    2.1353    0.2781 H   0  0  0  0  0  0  0  0  0  0  0  0
   -3.1808   -3.0739    1.6169 H   0  0  0  0  0  0  0  0  0  0  0  0
   -1.6241   -3.5824    0.9552 H   0  0  0  0  0  0  0  0  0  0  0  0
   -2.9474   -3.1683   -0.1463 H   0  0  0  0  0  0  0  0  0  0  0  0
  1  2  1  0
  2  3  1  0
  2  4  1  0
  4  5  1  0
  5  6  1  0
  6  7  2  0
  6  8  1  0
  8  9  1  0
  9 10  1  0
 10 11  1  0
 11 12  1  0
 12 13  2  0
 12 14  1  0
 14 15  2  0
 15 16  1  0
 16 17  1  0
 17 18  2  0
 18 19  1  0
 19 20  2  0
 16 21  1  0
 21 22  2  0
 22 23  1  0
 23 24  2  0
 24 25  1  0
 24 26  1  0
 26 27  2  0
 10 28  2  0
 28 29  1  0
 29 30  1  0
 29  8  2  0
 19 14  1  0
 27 21  1  0
  1 31  1  0
  1 32  1  0
  1 33  1  0
  2 34  1  0
  3 35  1  0
  3 36  1  0
  3 37  1  0
  4 38  1  0
  4 39  1  0
  5 40  1  0
 11 41  1  0
 17 42  1  0
 18 43  1  0
 22 44  1  0
 23 45  1  0
 26 46  1  0
 27 47  1  0
 30 48  1  0
 30 49  1  0
 30 50  1  0
M  END
>  <Unnamed: 0>  (163) 
930

>  <ID>  (163) 
TRAIN_0930

>  <Canonical_Smiles>  (163) 
CC(C)CNC(=O)c1sc(NC(=O)C2=NN(C=CC2=O)c3ccc(F)cc3)nc1C

>  <Inhibition>  (163) 
42.905101

>  <TDC_conf_true_inhibitor>  (163) 
0

>  <TDC_conf_non_inhibitor>  (163) 
1

>  <split>  (163) 
1

$$$$
163
     RDKit          3D

 43 46  0  0  0  0  0  0  0  0999 V2000
   -4.2319   -0.7876   -1.3776 C   0  0  0  0  0  0  0  0  0  0  0  0
   -4.1521    0.0802   -0.1021 C   0  0  0  0  0  0  0  0  0  0  0  0
   -5.2615    1.1447   -0.1827 C   0  0  0  0  0  0  0  0  0  0  0  0
   -4.3861   -0.7991    1.1467 C   0  0  0  0  0  0  0  0  0  0  0  0
   -3.2353   -1.7498    1.4307 C   0  0  0  0  0  0  0  0  0  0  0  0
   -3.4189   -2.8228    1.9989 O   0  0  0  0  0  0  0  0  0  0  0  0
   -1.8851   -1.2843    1.0533 C   0  0  0  0  0  0  0  0  0  0  0  0
   -1.6750   -0.1244    0.4189 C   0  0  0  0  0  0  0  0  0  0  0  0
   -2.7743    0.7934   -0.0215 C   0  0  0  0  0  0  0  0  0  0  0  0
   -0.3264    0.1371    0.2198 N   0  0  0  0  0  0  0  0  0  0  0  0
    0.2257    1.3190   -0.2020 C   0  0  0  0  0  0  0  0  0  0  0  0
   -0.3887    2.3318   -0.5213 O   0  0  0  0  0  0  0  0  0  0  0  0
    1.5881    1.3530   -0.1695 N   0  0  0  0  0  0  0  0  0  0  0  0
    2.3694    0.1300   -0.3288 C   0  0  0  0  0  0  0  0  0  0  0  0
    1.7828   -0.9217    0.5411 N   0  0  0  0  0  0  0  0  0  0  0  0
    0.5098   -0.8611    0.6637 C   0  0  0  0  0  0  0  0  0  0  0  0
   -0.4314   -2.1229    1.4434 S   0  0  0  0  0  0  0  0  0  0  0  0
    3.8155    0.4518    0.1009 C   0  0  0  0  0  0  0  0  0  0  0  0
    4.6046    1.3668   -0.6256 C   0  0  0  0  0  0  0  0  0  0  0  0
    5.9108    1.6684   -0.2302 C   0  0  0  0  0  0  0  0  0  0  0  0
    6.4546    1.0687    0.9011 C   0  0  0  0  0  0  0  0  0  0  0  0
    5.6928    0.1693    1.6399 C   0  0  0  0  0  0  0  0  0  0  0  0
    4.3866   -0.1339    1.2463 C   0  0  0  0  0  0  0  0  0  0  0  0
    2.3494   -0.4004   -1.8351 C   0  0  0  0  0  0  0  0  0  0  0  0
    3.1820   -1.4456   -2.0375 F   0  0  0  0  0  0  0  0  0  0  0  0
    1.1002   -0.8103   -2.1867 F   0  0  0  0  0  0  0  0  0  0  0  0
    2.6882    0.5744   -2.7164 F   0  0  0  0  0  0  0  0  0  0  0  0
   -5.2062   -1.2836   -1.4544 H   0  0  0  0  0  0  0  0  0  0  0  0
   -4.1024   -0.1753   -2.2774 H   0  0  0  0  0  0  0  0  0  0  0  0
   -3.4639   -1.5674   -1.3989 H   0  0  0  0  0  0  0  0  0  0  0  0
   -5.2602    1.7869    0.7051 H   0  0  0  0  0  0  0  0  0  0  0  0
   -6.2514    0.6801   -0.2546 H   0  0  0  0  0  0  0  0  0  0  0  0
   -5.1289    1.7885   -1.0595 H   0  0  0  0  0  0  0  0  0  0  0  0
   -5.2982   -1.3951    1.0204 H   0  0  0  0  0  0  0  0  0  0  0  0
   -4.5154   -0.1759    2.0403 H   0  0  0  0  0  0  0  0  0  0  0  0
   -2.5478    1.2139   -1.0086 H   0  0  0  0  0  0  0  0  0  0  0  0
   -2.8245    1.6308    0.6863 H   0  0  0  0  0  0  0  0  0  0  0  0
    1.9764    2.2146   -0.5322 H   0  0  0  0  0  0  0  0  0  0  0  0
    4.2188    1.8644   -1.5133 H   0  0  0  0  0  0  0  0  0  0  0  0
    6.5045    2.3735   -0.8072 H   0  0  0  0  0  0  0  0  0  0  0  0
    7.4706    1.3025    1.2081 H   0  0  0  0  0  0  0  0  0  0  0  0
    6.1132   -0.3001    2.5260 H   0  0  0  0  0  0  0  0  0  0  0  0
    3.8216   -0.8410    1.8518 H   0  0  0  0  0  0  0  0  0  0  0  0
  1  2  1  0
  2  3  1  0
  2  4  1  0
  4  5  1  0
  5  6  2  0
  5  7  1  0
  7  8  2  0
  8  9  1  0
  8 10  1  0
 10 11  1  0
 11 12  2  0
 11 13  1  0
 13 14  1  0
 14 15  1  0
 15 16  2  0
 16 17  1  0
 14 18  1  0
 18 19  2  0
 19 20  1  0
 20 21  2  0
 21 22  1  0
 22 23  2  0
 14 24  1  0
 24 25  1  0
 24 26  1  0
 24 27  1  0
  9  2  1  0
 17  7  1  0
 16 10  1  0
 23 18  1  0
  1 28  1  0
  1 29  1  0
  1 30  1  0
  3 31  1  0
  3 32  1  0
  3 33  1  0
  4 34  1  0
  4 35  1  0
  9 36  1  0
  9 37  1  0
 13 38  1  0
 19 39  1  0
 20 40  1  0
 21 41  1  0
 22 42  1  0
 23 43  1  0
M  END
>  <Unnamed: 0>  (164) 
933

>  <ID>  (164) 
TRAIN_0933

>  <Canonical_Smiles>  (164) 
CC1(C)CC(=O)C2=C(C1)N3C(=O)NC(N=C3S2)(c4ccccc4)C(F)(F)F

>  <Inhibition>  (164) 
40.432444

>  <TDC_conf_true_inhibitor>  (164) 
0

>  <TDC_conf_non_inhibitor>  (164) 
1

>  <split>  (164) 
1

$$$$
164
     RDKit          3D

 44 47  0  0  0  0  0  0  0  0999 V2000
   -4.1230   -0.3344    1.9695 C   0  0  0  0  0  0  0  0  0  0  0  0
   -4.0022   -0.2434    0.4474 C   0  0  0  0  0  0  0  0  0  0  0  0
   -4.8601    0.9320   -0.0414 C   0  0  0  0  0  0  0  0  0  0  0  0
   -4.7643    1.1195   -1.5502 C   0  0  0  0  0  0  0  0  0  0  0  0
   -3.3418    0.9419   -2.0697 C   0  0  0  0  0  0  0  0  0  0  0  0
   -2.3082    0.9891   -0.9533 C   0  0  0  0  0  0  0  0  0  0  0  0
   -2.5562   -0.0645    0.0725 N   0  0  0  0  0  0  0  0  0  0  0  0
   -1.6939   -1.5324   -0.1480 S   0  0  0  0  0  6  0  0  0  0  0  0
   -1.9920   -2.4510    0.9275 O   0  0  0  0  0  0  0  0  0  0  0  0
   -1.8978   -1.9349   -1.5244 O   0  0  0  0  0  0  0  0  0  0  0  0
    0.0049   -1.0519    0.0311 C   0  0  0  0  0  0  0  0  0  0  0  0
    0.8637   -1.2191   -1.0611 C   0  0  0  0  0  0  0  0  0  0  0  0
    2.2186   -0.8665   -0.9523 C   0  0  0  0  0  0  0  0  0  0  0  0
    3.1140   -1.0297   -2.1235 C   0  0  0  0  0  0  0  0  0  0  0  0
    2.6298   -1.4506   -3.1681 O   0  0  0  0  0  0  0  0  0  0  0  0
    4.4376   -0.7019   -2.0129 N   0  0  0  0  0  0  0  0  0  0  0  0
    4.8852   -0.2375   -0.8841 C   0  0  0  0  0  0  0  0  0  0  0  0
    6.3529    0.0871   -0.8873 C   0  0  0  0  0  0  0  0  0  0  0  0
    6.8945    0.5727    0.2389 C   0  0  0  0  0  0  0  0  0  0  0  0
    6.0977    0.7799    1.4265 C   0  0  0  0  0  0  0  0  0  0  0  0
    4.7883    0.4834    1.4094 C   0  0  0  0  0  0  0  0  0  0  0  0
    4.1360   -0.0235    0.2876 N   0  0  0  0  0  0  0  0  0  0  0  0
    2.7505   -0.3544    0.2397 C   0  0  0  0  0  0  0  0  0  0  0  0
    1.8655   -0.1998    1.3223 C   0  0  0  0  0  0  0  0  0  0  0  0
    0.5039   -0.5425    1.2272 C   0  0  0  0  0  0  0  0  0  0  0  0
   -0.4499   -0.2732    2.6400 Cl  0  0  0  0  0  0  0  0  0  0  0  0
   -3.5944   -1.2017    2.3723 H   0  0  0  0  0  0  0  0  0  0  0  0
   -5.1721   -0.4251    2.2709 H   0  0  0  0  0  0  0  0  0  0  0  0
   -3.7075    0.5568    2.4531 H   0  0  0  0  0  0  0  0  0  0  0  0
   -4.3880   -1.1640   -0.0083 H   0  0  0  0  0  0  0  0  0  0  0  0
   -4.5435    1.8591    0.4551 H   0  0  0  0  0  0  0  0  0  0  0  0
   -5.9104    0.7791    0.2354 H   0  0  0  0  0  0  0  0  0  0  0  0
   -5.1366    2.1174   -1.8108 H   0  0  0  0  0  0  0  0  0  0  0  0
   -5.4231    0.4046   -2.0582 H   0  0  0  0  0  0  0  0  0  0  0  0
   -3.2756   -0.0143   -2.6010 H   0  0  0  0  0  0  0  0  0  0  0  0
   -3.1234    1.7179   -2.8125 H   0  0  0  0  0  0  0  0  0  0  0  0
   -1.3049    0.8943   -1.3794 H   0  0  0  0  0  0  0  0  0  0  0  0
   -2.3220    1.9645   -0.4518 H   0  0  0  0  0  0  0  0  0  0  0  0
    0.4901   -1.6250   -2.0018 H   0  0  0  0  0  0  0  0  0  0  0  0
    6.9142   -0.0838   -1.7968 H   0  0  0  0  0  0  0  0  0  0  0  0
    7.9507    0.8204    0.2818 H   0  0  0  0  0  0  0  0  0  0  0  0
    6.5797    1.1724    2.3160 H   0  0  0  0  0  0  0  0  0  0  0  0
    4.2015    0.6396    2.3049 H   0  0  0  0  0  0  0  0  0  0  0  0
    2.2114    0.1932    2.2737 H   0  0  0  0  0  0  0  0  0  0  0  0
  1  2  1  0
  2  3  1  0
  3  4  1  0
  4  5  1  0
  5  6  1  0
  6  7  1  0
  7  8  1  0
  8  9  2  0
  8 10  2  0
  8 11  1  0
 11 12  2  0
 12 13  1  0
 13 14  1  0
 14 15  2  0
 14 16  1  0
 16 17  2  0
 17 18  1  0
 18 19  2  0
 19 20  1  0
 20 21  2  0
 21 22  1  0
 22 23  1  0
 23 24  1  0
 24 25  2  0
 25 26  1  0
  7  2  1  0
 25 11  1  0
 23 13  2  0
 22 17  1  0
  1 27  1  0
  1 28  1  0
  1 29  1  0
  2 30  1  0
  3 31  1  0
  3 32  1  0
  4 33  1  0
  4 34  1  0
  5 35  1  0
  5 36  1  0
  6 37  1  0
  6 38  1  0
 12 39  1  0
 18 40  1  0
 19 41  1  0
 20 42  1  0
 21 43  1  0
 24 44  1  0
M  END
>  <Unnamed: 0>  (165) 
957

>  <ID>  (165) 
TRAIN_0957

>  <Canonical_Smiles>  (165) 
CC1CCCCN1S(=O)(=O)c2cc3C(=O)N=C4C=CC=CN4c3cc2Cl

>  <Inhibition>  (165) 
37.356965

>  <TDC_conf_true_inhibitor>  (165) 
1

>  <TDC_conf_non_inhibitor>  (165) 
0

>  <split>  (165) 
1

$$$$
165
     RDKit          3D

 64 68  0  0  0  0  0  0  0  0999 V2000
    8.3413   -2.0843    0.7905 N   0  0  0  0  0  0  0  0  0  0  0  0
    7.1182   -1.6035    1.2265 C   0  0  0  0  0  0  0  0  0  0  0  0
    6.9255   -1.4113    2.5403 C   0  0  0  0  0  0  0  0  0  0  0  0
    5.6446   -0.8767    3.0394 C   0  0  0  0  0  0  0  0  0  0  0  0
    5.4842   -0.7697    4.2504 O   0  0  0  0  0  0  0  0  0  0  0  0
    4.7035   -0.4984    2.1243 N   0  0  0  0  0  0  0  0  0  0  0  0
    4.9271   -0.7095    0.8685 C   0  0  0  0  0  0  0  0  0  0  0  0
    3.6252   -0.1973   -0.2155 S   0  0  0  0  0  0  0  0  0  0  0  0
    2.8748    1.1250    0.7795 C   0  0  0  0  0  0  0  0  0  0  0  0
    1.7971    1.8202   -0.0386 C   0  0  0  0  0  0  0  0  0  0  0  0
    2.0989    2.7294   -0.8164 O   0  0  0  0  0  0  0  0  0  0  0  0
    0.4835    1.3987    0.1157 N   0  0  0  0  0  0  0  0  0  0  0  0
   -0.5791    2.1018   -0.5988 C   0  0  0  0  0  0  0  0  0  0  0  0
   -1.9185    2.0748    0.1642 C   0  0  0  0  0  0  0  0  0  0  0  0
   -2.3941    0.7376    0.5790 N   0  0  0  0  0  0  0  0  0  0  0  0
   -1.3274   -0.2768    0.5225 C   0  0  0  0  0  0  0  0  0  0  0  0
    0.0577    0.2616    0.9320 C   0  0  0  0  0  0  0  0  0  0  0  0
   -3.7193    0.3211    0.0585 C   0  0  0  0  0  0  0  0  0  0  0  0
   -4.1140   -1.1015    0.5726 C   0  0  0  0  0  0  0  0  0  0  0  0
   -5.5149   -1.5121    0.0870 C   0  0  0  0  0  0  0  0  0  0  0  0
   -5.5327   -1.5142   -1.4490 C   0  0  0  0  0  0  0  0  0  0  0  0
   -5.1927   -0.1134   -1.9784 C   0  0  0  0  0  0  0  0  0  0  0  0
   -6.2244    0.8932   -1.4460 C   0  0  0  0  0  0  0  0  0  0  0  0
   -6.2140    0.8964    0.0906 C   0  0  0  0  0  0  0  0  0  0  0  0
   -6.5497   -0.5079    0.6083 C   0  0  0  0  0  0  0  0  0  0  0  0
   -4.8149    1.3002    0.5870 C   0  0  0  0  0  0  0  0  0  0  0  0
   -3.7865    0.2915   -1.4955 C   0  0  0  0  0  0  0  0  0  0  0  0
    6.0783   -1.2952    0.3432 N   0  0  0  0  0  0  0  0  0  0  0  0
    6.1737   -1.6762   -1.0754 C   0  0  0  0  0  0  0  0  0  0  0  0
    6.7580   -0.5857   -1.9415 C   0  0  0  0  0  0  0  0  0  0  0  0
    7.2238    0.6170   -1.5706 C   0  0  0  0  0  0  0  0  0  0  0  0
    9.0804   -2.0090    1.4860 H   0  0  0  0  0  0  0  0  0  0  0  0
    8.6286   -1.6397   -0.0792 H   0  0  0  0  0  0  0  0  0  0  0  0
    7.6686   -1.6304    3.2943 H   0  0  0  0  0  0  0  0  0  0  0  0
    2.4653    0.7394    1.7164 H   0  0  0  0  0  0  0  0  0  0  0  0
    3.6289    1.8749    1.0414 H   0  0  0  0  0  0  0  0  0  0  0  0
   -0.6894    1.6180   -1.5782 H   0  0  0  0  0  0  0  0  0  0  0  0
   -0.2850    3.1427   -0.7779 H   0  0  0  0  0  0  0  0  0  0  0  0
   -1.7915    2.6581    1.0847 H   0  0  0  0  0  0  0  0  0  0  0  0
   -2.6515    2.6238   -0.4339 H   0  0  0  0  0  0  0  0  0  0  0  0
   -1.2479   -0.6890   -0.4903 H   0  0  0  0  0  0  0  0  0  0  0  0
   -1.5605   -1.1025    1.2032 H   0  0  0  0  0  0  0  0  0  0  0  0
    0.0390    0.5994    1.9749 H   0  0  0  0  0  0  0  0  0  0  0  0
    0.7918   -0.5453    0.8527 H   0  0  0  0  0  0  0  0  0  0  0  0
   -3.4043   -1.8577    0.2141 H   0  0  0  0  0  0  0  0  0  0  0  0
   -4.0850   -1.1290    1.6698 H   0  0  0  0  0  0  0  0  0  0  0  0
   -5.7545   -2.5146    0.4597 H   0  0  0  0  0  0  0  0  0  0  0  0
   -4.8110   -2.2453   -1.8335 H   0  0  0  0  0  0  0  0  0  0  0  0
   -6.5213   -1.8221   -1.8118 H   0  0  0  0  0  0  0  0  0  0  0  0
   -5.2170   -0.1195   -3.0735 H   0  0  0  0  0  0  0  0  0  0  0  0
   -5.9998    1.8974   -1.8259 H   0  0  0  0  0  0  0  0  0  0  0  0
   -7.2251    0.6315   -1.8115 H   0  0  0  0  0  0  0  0  0  0  0  0
   -6.9562    1.6117    0.4627 H   0  0  0  0  0  0  0  0  0  0  0  0
   -6.5593   -0.5125    1.7050 H   0  0  0  0  0  0  0  0  0  0  0  0
   -7.5547   -0.7999    0.2796 H   0  0  0  0  0  0  0  0  0  0  0  0
   -4.6267    2.3298    0.2619 H   0  0  0  0  0  0  0  0  0  0  0  0
   -4.8071    1.3162    1.6857 H   0  0  0  0  0  0  0  0  0  0  0  0
   -3.5416    1.2712   -1.9221 H   0  0  0  0  0  0  0  0  0  0  0  0
   -3.0518   -0.4164   -1.8982 H   0  0  0  0  0  0  0  0  0  0  0  0
    5.2004   -1.9795   -1.4770 H   0  0  0  0  0  0  0  0  0  0  0  0
    6.7950   -2.5742   -1.1913 H   0  0  0  0  0  0  0  0  0  0  0  0
    6.7819   -0.8285   -3.0043 H   0  0  0  0  0  0  0  0  0  0  0  0
    7.2251    0.9508   -0.5368 H   0  0  0  0  0  0  0  0  0  0  0  0
    7.6029    1.3150   -2.3129 H   0  0  0  0  0  0  0  0  0  0  0  0
  1  2  1  0
  2  3  2  0
  3  4  1  0
  4  5  2  0
  4  6  1  0
  6  7  2  0
  7  8  1  0
  8  9  1  0
  9 10  1  0
 10 11  2  0
 10 12  1  0
 12 13  1  0
 13 14  1  0
 14 15  1  0
 15 16  1  0
 16 17  1  0
 15 18  1  0
 18 19  1  0
 19 20  1  0
 20 21  1  0
 21 22  1  0
 22 23  1  0
 23 24  1  0
 24 25  1  0
 24 26  1  0
 22 27  1  0
  7 28  1  0
 28 29  1  0
 29 30  1  0
 30 31  2  0
 28  2  1  0
 17 12  1  0
 26 18  1  0
 27 18  1  0
 25 20  1  0
  1 32  1  0
  1 33  1  0
  3 34  1  0
  9 35  1  0
  9 36  1  0
 13 37  1  0
 13 38  1  0
 14 39  1  0
 14 40  1  0
 16 41  1  0
 16 42  1  0
 17 43  1  0
 17 44  1  0
 19 45  1  0
 19 46  1  0
 20 47  1  0
 21 48  1  0
 21 49  1  0
 22 50  1  0
 23 51  1  0
 23 52  1  0
 24 53  1  0
 25 54  1  0
 25 55  1  0
 26 56  1  0
 26 57  1  0
 27 58  1  0
 27 59  1  0
 29 60  1  0
 29 61  1  0
 30 62  1  0
 31 63  1  0
 31 64  1  0
M  END
>  <Unnamed: 0>  (166) 
958

>  <ID>  (166) 
TRAIN_0958

>  <Canonical_Smiles>  (166) 
NC1=CC(=O)N=C(SCC(=O)N2CCN(CC2)C34CC5CC(CC(C5)C3)C4)N1CC=C

>  <Inhibition>  (166) 
67.9421

>  <TDC_conf_true_inhibitor>  (166) 
1

>  <TDC_conf_non_inhibitor>  (166) 
0

>  <split>  (166) 
1

$$$$
166
     RDKit          3D

 35 39  0  0  0  0  0  0  0  0999 V2000
   -6.2059   -0.9319    1.5455 C   0  0  0  0  0  0  0  0  0  0  0  0
   -5.0454   -1.1604    2.2891 C   0  0  0  0  0  0  0  0  0  0  0  0
   -3.7946   -0.8738    1.7424 C   0  0  0  0  0  0  0  0  0  0  0  0
   -3.7151   -0.3581    0.4484 C   0  0  0  0  0  0  0  0  0  0  0  0
   -4.8836   -0.1222   -0.3153 C   0  0  0  0  0  0  0  0  0  0  0  0
   -6.1243   -0.4151    0.2491 C   0  0  0  0  0  0  0  0  0  0  0  0
   -4.8366    0.4032   -1.6384 N   0  0  0  0  0  0  0  0  0  0  0  0
   -3.6742    0.6765   -2.1641 C   0  0  0  0  0  0  0  0  0  0  0  0
   -2.4987    0.4641   -1.4590 N   0  0  0  0  0  0  0  0  0  0  0  0
   -1.2660    0.7216   -1.9350 N   0  0  0  0  0  0  0  0  0  0  0  0
   -0.5146    0.3501   -0.8874 C   0  0  0  0  0  0  0  0  0  0  0  0
   -1.2067   -0.1200    0.2036 N   0  0  0  0  0  0  0  0  0  0  0  0
   -2.4577   -0.0348   -0.1905 C   0  0  0  0  0  0  0  0  0  0  0  0
    1.0156    0.4472   -0.9151 C   0  0  0  0  0  0  0  0  0  0  0  0
    1.9140    0.1107    0.0646 C   0  0  0  0  0  0  0  0  0  0  0  0
    3.1972    0.3996   -0.4836 C   0  0  0  0  0  0  0  0  0  0  0  0
    3.0732    0.8865   -1.7335 N   0  0  0  0  0  0  0  0  0  0  0  0
    1.7489    0.9019   -1.9613 N   0  0  0  0  0  0  0  0  0  0  0  0
    4.5139    0.2267    0.1419 C   0  0  0  0  0  0  0  0  0  0  0  0
    4.6447   -0.2782    1.4383 C   0  0  0  0  0  0  0  0  0  0  0  0
    5.9166   -0.4177    1.9726 C   0  0  0  0  0  0  0  0  0  0  0  0
    7.0492   -0.0944    1.3159 N   0  0  0  0  0  0  0  0  0  0  0  0
    6.9039    0.3914    0.0658 C   0  0  0  0  0  0  0  0  0  0  0  0
    5.6783    0.5673   -0.5540 C   0  0  0  0  0  0  0  0  0  0  0  0
   -7.1790   -1.1570    1.9764 H   0  0  0  0  0  0  0  0  0  0  0  0
   -5.1176   -1.5627    3.2971 H   0  0  0  0  0  0  0  0  0  0  0  0
   -2.8915   -1.0518    2.3217 H   0  0  0  0  0  0  0  0  0  0  0  0
   -7.0312   -0.2398   -0.3238 H   0  0  0  0  0  0  0  0  0  0  0  0
   -3.6019    1.0838   -3.1847 H   0  0  0  0  0  0  0  0  0  0  0  0
    1.6707   -0.2879    1.0388 H   0  0  0  0  0  0  0  0  0  0  0  0
    1.4048    1.2357   -2.8554 H   0  0  0  0  0  0  0  0  0  0  0  0
    3.7885   -0.5633    2.0376 H   0  0  0  0  0  0  0  0  0  0  0  0
    6.0606   -0.8064    2.9769 H   0  0  0  0  0  0  0  0  0  0  0  0
    7.8284    0.6452   -0.4447 H   0  0  0  0  0  0  0  0  0  0  0  0
    5.6365    0.9638   -1.5637 H   0  0  0  0  0  0  0  0  0  0  0  0
  1  2  2  0
  2  3  1  0
  3  4  2  0
  4  5  1  0
  5  6  2  0
  5  7  1  0
  7  8  2  0
  8  9  1  0
  9 10  1  0
 10 11  2  0
 11 12  1  0
 12 13  2  0
 11 14  1  0
 14 15  2  0
 15 16  1  0
 16 17  2  0
 17 18  1  0
 16 19  1  0
 19 20  2  0
 20 21  1  0
 21 22  2  0
 22 23  1  0
 23 24  2  0
  6  1  1  0
 13  4  1  0
 13  9  1  0
 18 14  1  0
 24 19  1  0
  1 25  1  0
  2 26  1  0
  3 27  1  0
  6 28  1  0
  8 29  1  0
 15 30  1  0
 18 31  1  0
 20 32  1  0
 21 33  1  0
 23 34  1  0
 24 35  1  0
M  END
>  <Unnamed: 0>  (167) 
962

>  <ID>  (167) 
TRAIN_0962

>  <Canonical_Smiles>  (167) 
c1ccc2c(c1)ncn3nc(nc23)c4cc(n[nH]4)c5ccncc5

>  <Inhibition>  (167) 
51.518789

>  <TDC_conf_true_inhibitor>  (167) 
1

>  <TDC_conf_non_inhibitor>  (167) 
0

>  <split>  (167) 
1

$$$$
167
     RDKit          3D

 35 37  0  0  0  0  0  0  0  0999 V2000
    0.6940   -0.0296    2.0066 C   0  0  0  0  0  0  0  0  0  0  0  0
   -0.3617   -0.1353    0.9657 C   0  0  0  0  0  0  0  0  0  0  0  0
   -1.6140   -0.4467    1.3259 N   0  0  0  0  0  0  0  0  0  0  0  0
   -2.3405   -0.3661    0.1759 N   0  0  0  0  0  0  0  0  0  0  0  0
   -1.5004   -0.2262   -0.9092 C   0  0  0  0  0  0  0  0  0  0  0  0
   -2.0256   -0.5083   -2.5132 Cl  0  0  0  0  0  0  0  0  0  0  0  0
   -0.2279    0.0040   -0.4411 C   0  0  0  0  0  0  0  0  0  0  0  0
    0.9369    0.2583   -1.2508 C   0  0  0  0  0  0  0  0  0  0  0  0
    2.0846    0.4224   -0.6755 N   0  0  0  0  0  0  0  0  0  0  0  0
    3.1209    0.6500   -1.5276 N   0  0  0  0  0  0  0  0  0  0  0  0
    4.4332    0.6700   -1.0295 C   0  0  0  0  0  0  0  0  0  0  0  0
    4.7145    0.9693    0.2993 C   0  0  0  0  0  0  0  0  0  0  0  0
    6.0373    0.9927    0.7356 C   0  0  0  0  0  0  0  0  0  0  0  0
    7.0231    0.7186   -0.1866 C   0  0  0  0  0  0  0  0  0  0  0  0
    8.6797    0.7182    0.2400 Cl  0  0  0  0  0  0  0  0  0  0  0  0
    6.7519    0.4374   -1.4736 N   0  0  0  0  0  0  0  0  0  0  0  0
    5.4418    0.4184   -1.8947 N   0  0  0  0  0  0  0  0  0  0  0  0
   -3.7491   -0.5071    0.2430 C   0  0  0  0  0  0  0  0  0  0  0  0
   -4.2610   -1.4812    1.1205 C   0  0  0  0  0  0  0  0  0  0  0  0
   -5.6357   -1.7062    1.2028 C   0  0  0  0  0  0  0  0  0  0  0  0
   -6.5111   -0.9467    0.4321 C   0  0  0  0  0  0  0  0  0  0  0  0
   -6.0138    0.0592   -0.3980 C   0  0  0  0  0  0  0  0  0  0  0  0
   -4.6355    0.2966   -0.4859 C   0  0  0  0  0  0  0  0  0  0  0  0
   -4.1597    1.7181   -1.3509 Cl  0  0  0  0  0  0  0  0  0  0  0  0
    1.4681   -0.7867    1.8471 H   0  0  0  0  0  0  0  0  0  0  0  0
    0.2830   -0.1780    3.0109 H   0  0  0  0  0  0  0  0  0  0  0  0
    1.1596    0.9606    1.9809 H   0  0  0  0  0  0  0  0  0  0  0  0
    0.8141    0.3107   -2.3470 H   0  0  0  0  0  0  0  0  0  0  0  0
    3.1162    0.3067   -2.4878 H   0  0  0  0  0  0  0  0  0  0  0  0
    3.9082    1.1863    0.9923 H   0  0  0  0  0  0  0  0  0  0  0  0
    6.2779    1.2212    1.7667 H   0  0  0  0  0  0  0  0  0  0  0  0
   -3.5910   -2.0902    1.7266 H   0  0  0  0  0  0  0  0  0  0  0  0
   -6.0212   -2.4741    1.8696 H   0  0  0  0  0  0  0  0  0  0  0  0
   -7.5831   -1.1169    0.4984 H   0  0  0  0  0  0  0  0  0  0  0  0
   -6.7139    0.6807   -0.9524 H   0  0  0  0  0  0  0  0  0  0  0  0
  1  2  1  0
  2  3  2  0
  3  4  1  0
  4  5  1  0
  5  6  1  0
  5  7  2  0
  7  8  1  0
  8  9  2  0
  9 10  1  0
 10 11  1  0
 11 12  2  0
 12 13  1  0
 13 14  2  0
 14 15  1  0
 14 16  1  0
 16 17  2  0
  4 18  1  0
 18 19  2  0
 19 20  1  0
 20 21  2  0
 21 22  1  0
 22 23  2  0
 23 24  1  0
  7  2  1  0
 17 11  1  0
 23 18  1  0
  1 25  1  0
  1 26  1  0
  1 27  1  0
  8 28  1  0
 10 29  1  0
 12 30  1  0
 13 31  1  0
 19 32  1  0
 20 33  1  0
 21 34  1  0
 22 35  1  0
M  END
>  <Unnamed: 0>  (168) 
964

>  <ID>  (168) 
TRAIN_0964

>  <Canonical_Smiles>  (168) 
Cc1nn(c(Cl)c1\C=N\Nc2ccc(Cl)nn2)c3ccccc3Cl

>  <Inhibition>  (168) 
40.921561

>  <TDC_conf_true_inhibitor>  (168) 
0

>  <TDC_conf_non_inhibitor>  (168) 
1

>  <split>  (168) 
1

$$$$
168
     RDKit          3D

 44 46  0  0  0  0  0  0  0  0999 V2000
    7.1687   -1.0283    1.9728 C   0  0  0  0  0  0  0  0  0  0  0  0
    6.0593   -1.4772    1.1935 O   0  0  0  0  0  0  0  0  0  0  0  0
    5.2005   -0.4850    0.8278 C   0  0  0  0  0  0  0  0  0  0  0  0
    5.3337    0.7033    1.1008 O   0  0  0  0  0  0  0  0  0  0  0  0
    4.0670   -1.0507   -0.0098 C   0  0  0  0  0  0  0  0  0  0  0  0
    3.0016   -0.0704   -0.1401 N   0  0  0  0  0  0  0  0  0  0  0  0
    1.9251   -0.3467   -0.9362 C   0  0  0  0  0  0  0  0  0  0  0  0
    1.7539   -1.4201   -1.4963 O   0  0  0  0  0  0  0  0  0  0  0  0
    1.0735    0.7207   -1.0142 N   0  0  0  0  0  0  0  0  0  0  0  0
   -0.1720    0.6666   -1.7540 C   0  0  0  0  0  0  0  0  0  0  0  0
   -1.4113    0.3190   -0.8972 C   0  0  0  0  0  0  0  0  0  0  0  0
   -1.6275    1.3571    0.2347 C   0  0  0  0  0  0  0  0  0  0  0  0
   -2.8982    1.0290    1.0391 C   0  0  0  0  0  0  0  0  0  0  0  0
   -2.7595   -0.3726    1.6557 C   0  0  0  0  0  0  0  0  0  0  0  0
   -2.5751   -1.4205    0.5457 C   0  0  0  0  0  0  0  0  0  0  0  0
   -3.7930   -1.3871   -0.3906 C   0  0  0  0  0  0  0  0  0  0  0  0
   -3.9365    0.0094   -1.0151 C   0  0  0  0  0  0  0  0  0  0  0  0
   -4.1148    1.0512    0.1003 C   0  0  0  0  0  0  0  0  0  0  0  0
   -2.6649    0.3378   -1.8142 C   0  0  0  0  0  0  0  0  0  0  0  0
   -1.3045   -1.0884   -0.2574 C   0  0  0  0  0  0  0  0  0  0  0  0
    6.8228   -0.5724    2.9058 H   0  0  0  0  0  0  0  0  0  0  0  0
    7.7835   -1.8982    2.2197 H   0  0  0  0  0  0  0  0  0  0  0  0
    7.7792   -0.3239    1.3992 H   0  0  0  0  0  0  0  0  0  0  0  0
    4.4450   -1.3003   -1.0060 H   0  0  0  0  0  0  0  0  0  0  0  0
    3.6506   -1.9410    0.4711 H   0  0  0  0  0  0  0  0  0  0  0  0
    3.2859    0.8996   -0.0892 H   0  0  0  0  0  0  0  0  0  0  0  0
    1.1797    1.4393   -0.3143 H   0  0  0  0  0  0  0  0  0  0  0  0
   -0.2980    1.6579   -2.2049 H   0  0  0  0  0  0  0  0  0  0  0  0
   -0.0667   -0.0527   -2.5750 H   0  0  0  0  0  0  0  0  0  0  0  0
   -0.7676    1.3694    0.9158 H   0  0  0  0  0  0  0  0  0  0  0  0
   -1.7098    2.3663   -0.1887 H   0  0  0  0  0  0  0  0  0  0  0  0
   -3.0324    1.7706    1.8345 H   0  0  0  0  0  0  0  0  0  0  0  0
   -3.6502   -0.6099    2.2503 H   0  0  0  0  0  0  0  0  0  0  0  0
   -1.9035   -0.3977    2.3412 H   0  0  0  0  0  0  0  0  0  0  0  0
   -2.4794   -2.4170    0.9912 H   0  0  0  0  0  0  0  0  0  0  0  0
   -4.7020   -1.6431    0.1676 H   0  0  0  0  0  0  0  0  0  0  0  0
   -3.6807   -2.1414   -1.1791 H   0  0  0  0  0  0  0  0  0  0  0  0
   -4.8066    0.0286   -1.6810 H   0  0  0  0  0  0  0  0  0  0  0  0
   -4.2342    2.0508   -0.3353 H   0  0  0  0  0  0  0  0  0  0  0  0
   -5.0296    0.8399    0.6675 H   0  0  0  0  0  0  0  0  0  0  0  0
   -2.7736    1.3234   -2.2853 H   0  0  0  0  0  0  0  0  0  0  0  0
   -2.5470   -0.3882   -2.6293 H   0  0  0  0  0  0  0  0  0  0  0  0
   -1.1519   -1.8471   -1.0355 H   0  0  0  0  0  0  0  0  0  0  0  0
   -0.4394   -1.1423    0.4144 H   0  0  0  0  0  0  0  0  0  0  0  0
  1  2  1  0
  2  3  1  0
  3  4  2  0
  3  5  1  0
  5  6  1  0
  6  7  1  0
  7  8  2  0
  7  9  1  0
  9 10  1  0
 10 11  1  0
 11 12  1  0
 12 13  1  0
 13 14  1  0
 14 15  1  0
 15 16  1  0
 16 17  1  0
 17 18  1  0
 17 19  1  0
 15 20  1  0
 19 11  1  0
 20 11  1  0
 18 13  1  0
  1 21  1  0
  1 22  1  0
  1 23  1  0
  5 24  1  0
  5 25  1  0
  6 26  1  0
  9 27  1  0
 10 28  1  0
 10 29  1  0
 12 30  1  0
 12 31  1  0
 13 32  1  0
 14 33  1  0
 14 34  1  0
 15 35  1  0
 16 36  1  0
 16 37  1  0
 17 38  1  0
 18 39  1  0
 18 40  1  0
 19 41  1  0
 19 42  1  0
 20 43  1  0
 20 44  1  0
M  END
>  <Unnamed: 0>  (169) 
972

>  <ID>  (169) 
TRAIN_0972

>  <Canonical_Smiles>  (169) 
COC(=O)CNC(=O)NCC12CC3CC(CC(C3)C1)C2

>  <Inhibition>  (169) 
6.75

>  <TDC_conf_true_inhibitor>  (169) 
0

>  <TDC_conf_non_inhibitor>  (169) 
1

>  <split>  (169) 
1

$$$$
169
     RDKit          3D

 54 54  0  0  0  0  0  0  0  0999 V2000
   -6.0755   -2.5851    0.3715 C   0  0  0  0  0  0  0  0  0  0  0  0
   -5.2601   -1.3029    0.2685 C   0  0  0  0  0  0  0  0  0  0  0  0
   -3.9659   -1.4044    1.0903 C   0  0  0  0  0  0  0  0  0  0  0  0
   -3.1445   -0.1446    0.9931 N   0  0  0  0  0  0  0  0  0  0  0  0
   -3.9354    1.0090    0.4684 C   0  0  0  0  0  0  0  0  0  0  0  0
   -5.3868    0.9919    0.9884 C   0  0  0  0  0  0  0  0  0  0  0  0
   -5.4751    1.2850    2.4840 C   0  0  0  0  0  0  0  0  0  0  0  0
   -6.0950   -0.2279    0.7233 O   0  0  0  0  0  0  0  0  0  0  0  0
   -1.5973   -0.3822    0.3276 S   0  0  0  0  0  6  0  0  0  0  0  0
   -1.0179   -1.5168    1.0155 O   0  0  0  0  0  0  0  0  0  0  0  0
   -1.7476   -0.3886   -1.1134 O   0  0  0  0  0  0  0  0  0  0  0  0
   -0.6982    1.0789    0.8411 C   0  0  0  0  0  0  0  0  0  0  0  0
   -0.6711    2.1514   -0.2339 C   0  0  0  0  0  0  0  0  0  0  0  0
    0.2407    1.8547   -1.3252 N   0  0  0  0  0  0  0  0  0  0  0  0
    1.5982    2.0683   -1.2021 C   0  0  0  0  0  0  0  0  0  0  0  0
    2.0972    2.6149   -0.2198 O   0  0  0  0  0  0  0  0  0  0  0  0
    2.4236    1.6269   -2.4134 C   0  0  0  0  0  0  0  0  0  0  0  0
    3.7551    1.2653   -1.9835 N   0  0  0  0  0  0  0  0  0  0  0  0
    4.0340   -0.0116   -1.6007 C   0  0  0  0  0  0  0  0  0  0  0  0
    3.3083   -0.9709   -1.8053 O   0  0  0  0  0  0  0  0  0  0  0  0
    5.2167   -0.0222   -0.9480 O   0  0  0  0  0  0  0  0  0  0  0  0
    5.7445   -1.2547   -0.3941 C   0  0  0  0  0  0  0  0  0  0  0  0
    7.0747   -0.8501    0.2596 C   0  0  0  0  0  0  0  0  0  0  0  0
    4.8190   -1.8195    0.6895 C   0  0  0  0  0  0  0  0  0  0  0  0
    6.0327   -2.2820   -1.4944 C   0  0  0  0  0  0  0  0  0  0  0  0
   -6.3754   -2.7759    1.4078 H   0  0  0  0  0  0  0  0  0  0  0  0
   -6.9985   -2.4990   -0.2121 H   0  0  0  0  0  0  0  0  0  0  0  0
   -5.5104   -3.4474    0.0047 H   0  0  0  0  0  0  0  0  0  0  0  0
   -5.0262   -1.1262   -0.7888 H   0  0  0  0  0  0  0  0  0  0  0  0
   -3.3959   -2.2786    0.7588 H   0  0  0  0  0  0  0  0  0  0  0  0
   -4.1951   -1.5508    2.1525 H   0  0  0  0  0  0  0  0  0  0  0  0
   -3.4578    1.9448    0.7739 H   0  0  0  0  0  0  0  0  0  0  0  0
   -3.9510    0.9685   -0.6269 H   0  0  0  0  0  0  0  0  0  0  0  0
   -5.9390    1.7837    0.4685 H   0  0  0  0  0  0  0  0  0  0  0  0
   -5.0059    2.2429    2.7285 H   0  0  0  0  0  0  0  0  0  0  0  0
   -6.5234    1.3212    2.8007 H   0  0  0  0  0  0  0  0  0  0  0  0
   -4.9986    0.5011    3.0805 H   0  0  0  0  0  0  0  0  0  0  0  0
    0.3144    0.7506    1.0993 H   0  0  0  0  0  0  0  0  0  0  0  0
   -1.1688    1.4432    1.7596 H   0  0  0  0  0  0  0  0  0  0  0  0
   -1.6558    2.3144   -0.6802 H   0  0  0  0  0  0  0  0  0  0  0  0
   -0.3539    3.0983    0.2178 H   0  0  0  0  0  0  0  0  0  0  0  0
   -0.0818    1.1953   -2.0310 H   0  0  0  0  0  0  0  0  0  0  0  0
    1.9441    0.7871   -2.9250 H   0  0  0  0  0  0  0  0  0  0  0  0
    2.5083    2.4745   -3.0995 H   0  0  0  0  0  0  0  0  0  0  0  0
    4.3089    1.9653   -1.5068 H   0  0  0  0  0  0  0  0  0  0  0  0
    7.5778   -1.7055    0.7227 H   0  0  0  0  0  0  0  0  0  0  0  0
    6.9145   -0.0848    1.0283 H   0  0  0  0  0  0  0  0  0  0  0  0
    7.7533   -0.4080   -0.4793 H   0  0  0  0  0  0  0  0  0  0  0  0
    5.2914   -2.6513    1.2231 H   0  0  0  0  0  0  0  0  0  0  0  0
    4.5539   -1.0441    1.4170 H   0  0  0  0  0  0  0  0  0  0  0  0
    3.8790   -2.1917    0.2713 H   0  0  0  0  0  0  0  0  0  0  0  0
    6.6234   -1.8328   -2.3006 H   0  0  0  0  0  0  0  0  0  0  0  0
    6.5805   -3.1448   -1.1001 H   0  0  0  0  0  0  0  0  0  0  0  0
    5.1136   -2.6599   -1.9522 H   0  0  0  0  0  0  0  0  0  0  0  0
  1  2  1  0
  2  3  1  0
  3  4  1  0
  4  5  1  0
  5  6  1  0
  6  7  1  0
  6  8  1  0
  4  9  1  0
  9 10  2  0
  9 11  2  0
  9 12  1  0
 12 13  1  0
 13 14  1  0
 14 15  1  0
 15 16  2  0
 15 17  1  0
 17 18  1  0
 18 19  1  0
 19 20  2  0
 19 21  1  0
 21 22  1  0
 22 23  1  0
 22 24  1  0
 22 25  1  0
  8  2  1  0
  1 26  1  0
  1 27  1  0
  1 28  1  0
  2 29  1  0
  3 30  1  0
  3 31  1  0
  5 32  1  0
  5 33  1  0
  6 34  1  0
  7 35  1  0
  7 36  1  0
  7 37  1  0
 12 38  1  0
 12 39  1  0
 13 40  1  0
 13 41  1  0
 14 42  1  0
 17 43  1  0
 17 44  1  0
 18 45  1  0
 23 46  1  0
 23 47  1  0
 23 48  1  0
 24 49  1  0
 24 50  1  0
 24 51  1  0
 25 52  1  0
 25 53  1  0
 25 54  1  0
M  END
>  <Unnamed: 0>  (170) 
977

>  <ID>  (170) 
TRAIN_0977

>  <Canonical_Smiles>  (170) 
CC1CN(CC(C)O1)S(=O)(=O)CCNC(=O)CNC(=O)OC(C)(C)C

>  <Inhibition>  (170) 
15.2

>  <TDC_conf_true_inhibitor>  (170) 
0

>  <TDC_conf_non_inhibitor>  (170) 
1

>  <split>  (170) 
1

$$$$
170
     RDKit          3D

 27 29  0  0  0  0  0  0  0  0999 V2000
    5.7297   -0.3016    0.3477 F   0  0  0  0  0  0  0  0  0  0  0  0
    5.0204   -0.4254   -0.8090 C   0  0  0  0  0  0  0  0  0  0  0  0
    5.3758   -1.6247   -1.3469 F   0  0  0  0  0  0  0  0  0  0  0  0
    5.4914    0.5371   -1.6491 F   0  0  0  0  0  0  0  0  0  0  0  0
    3.5255   -0.3144   -0.5875 C   0  0  0  0  0  0  0  0  0  0  0  0
    2.9671   -0.1074    0.6705 N   0  0  0  0  0  0  0  0  0  0  0  0
    1.6838   -0.0731    0.4284 C   0  0  0  0  0  0  0  0  0  0  0  0
    0.6329    0.0973    1.2516 N   0  0  0  0  0  0  0  0  0  0  0  0
   -0.6688    0.1008    0.7809 C   0  0  0  0  0  0  0  0  0  0  0  0
   -0.9502   -0.0639   -0.5317 C   0  0  0  0  0  0  0  0  0  0  0  0
   -2.3378   -0.0492   -1.1056 C   0  0  0  0  0  0  0  0  0  0  0  0
   -3.3822    0.4847   -0.1232 C   0  0  0  0  0  0  0  0  0  0  0  0
   -3.1594   -0.0784    1.2758 C   0  0  0  0  0  0  0  0  0  0  0  0
   -1.7692    0.2860    1.8022 C   0  0  0  0  0  0  0  0  0  0  0  0
    0.1771   -0.2642   -1.5026 C   0  0  0  0  0  0  0  0  0  0  0  0
    0.0301   -0.4297   -2.7063 O   0  0  0  0  0  0  0  0  0  0  0  0
    1.4457   -0.2491   -0.9135 N   0  0  0  0  0  0  0  0  0  0  0  0
    2.6157   -0.4063   -1.5834 N   0  0  0  0  0  0  0  0  0  0  0  0
    0.7854    0.2277    2.2485 H   0  0  0  0  0  0  0  0  0  0  0  0
   -2.3704    0.5645   -2.0135 H   0  0  0  0  0  0  0  0  0  0  0  0
   -2.6047   -1.0727   -1.3969 H   0  0  0  0  0  0  0  0  0  0  0  0
   -3.3279    1.5803   -0.0875 H   0  0  0  0  0  0  0  0  0  0  0  0
   -4.3868    0.2275   -0.4776 H   0  0  0  0  0  0  0  0  0  0  0  0
   -3.2697   -1.1701    1.2517 H   0  0  0  0  0  0  0  0  0  0  0  0
   -3.9240    0.3038    1.9614 H   0  0  0  0  0  0  0  0  0  0  0  0
   -1.5628   -0.3245    2.6898 H   0  0  0  0  0  0  0  0  0  0  0  0
   -1.7665    1.3345    2.1260 H   0  0  0  0  0  0  0  0  0  0  0  0
  1  2  1  0
  2  3  1  0
  2  4  1  0
  2  5  1  0
  5  6  1  0
  6  7  2  0
  7  8  1  0
  8  9  1  0
  9 10  2  0
 10 11  1  0
 11 12  1  0
 12 13  1  0
 13 14  1  0
 10 15  1  0
 15 16  2  0
 15 17  1  0
 17 18  1  0
 18  5  2  0
 17  7  1  0
 14  9  1  0
  8 19  1  0
 11 20  1  0
 11 21  1  0
 12 22  1  0
 12 23  1  0
 13 24  1  0
 13 25  1  0
 14 26  1  0
 14 27  1  0
M  END
>  <Unnamed: 0>  (171) 
984

>  <ID>  (171) 
TRAIN_0984

>  <Canonical_Smiles>  (171) 
FC(F)(F)c1nc2NC3=C(CCCC3)C(=O)n2n1

>  <Inhibition>  (171) 
0.5

>  <TDC_conf_true_inhibitor>  (171) 
0

>  <TDC_conf_non_inhibitor>  (171) 
1

>  <split>  (171) 
1

$$$$
171
     RDKit          3D

 23 24  0  0  0  0  0  0  0  0999 V2000
    5.0396    0.8706   -0.4134 C   0  0  0  0  0  0  0  0  0  0  0  0
    4.0831   -0.2979   -0.2773 C   0  0  0  0  0  0  0  0  0  0  0  0
    2.7480    0.2203   -0.2341 O   0  0  0  0  0  0  0  0  0  0  0  0
    1.7739   -0.7331   -0.1116 C   0  0  0  0  0  0  0  0  0  0  0  0
    2.0042   -1.9363   -0.0430 O   0  0  0  0  0  0  0  0  0  0  0  0
    0.4690   -0.1127   -0.0772 C   0  0  0  0  0  0  0  0  0  0  0  0
    0.3553    1.2468   -0.1633 O   0  0  0  0  0  0  0  0  0  0  0  0
   -1.0079    1.5378   -0.1029 N   0  0  0  0  0  0  0  0  0  0  0  0
   -1.5782    0.3313    0.0130 C   0  0  0  0  0  0  0  0  0  0  0  0
   -0.6957   -0.7216    0.0330 N   0  0  0  0  0  0  0  0  0  0  0  0
   -3.1213    0.1318    0.1175 C   0  0  0  0  0  0  0  0  0  0  0  0
   -4.0472    1.1369    0.1034 O   0  0  0  0  0  0  0  0  0  0  0  0
   -5.2716    0.5588    0.2149 C   0  0  0  0  0  0  0  0  0  0  0  0
   -6.9121    1.5210    0.2457 Br  0  0  0  0  0  0  0  0  0  0  0  0
   -5.1514   -0.8089    0.3012 C   0  0  0  0  0  0  0  0  0  0  0  0
   -3.7636   -1.0858    0.2385 C   0  0  0  0  0  0  0  0  0  0  0  0
    4.8243    1.4411   -1.3229 H   0  0  0  0  0  0  0  0  0  0  0  0
    4.9273    1.5608    0.4293 H   0  0  0  0  0  0  0  0  0  0  0  0
    6.0762    0.5242   -0.4507 H   0  0  0  0  0  0  0  0  0  0  0  0
    4.2974   -0.8454    0.6473 H   0  0  0  0  0  0  0  0  0  0  0  0
    4.1923   -0.9673   -1.1379 H   0  0  0  0  0  0  0  0  0  0  0  0
   -5.9608   -1.5190    0.3974 H   0  0  0  0  0  0  0  0  0  0  0  0
   -3.2807   -2.0533    0.2761 H   0  0  0  0  0  0  0  0  0  0  0  0
  1  2  1  0
  2  3  1  0
  3  4  1  0
  4  5  2  0
  4  6  1  0
  6  7  1  0
  7  8  1  0
  8  9  2  0
  9 10  1  0
  9 11  1  0
 11 12  1  0
 12 13  1  0
 13 14  1  0
 13 15  2  0
 15 16  1  0
 10  6  2  0
 16 11  2  0
  1 17  1  0
  1 18  1  0
  1 19  1  0
  2 20  1  0
  2 21  1  0
 15 22  1  0
 16 23  1  0
M  END
>  <Unnamed: 0>  (172) 
985

>  <ID>  (172) 
TRAIN_0985

>  <Canonical_Smiles>  (172) 
CCOC(=O)c1onc(n1)c2oc(Br)cc2

>  <Inhibition>  (172) 
2.34

>  <TDC_conf_true_inhibitor>  (172) 
0

>  <TDC_conf_non_inhibitor>  (172) 
1

>  <split>  (172) 
1

$$$$
172
     RDKit          3D

 34 37  0  0  0  0  0  0  0  0999 V2000
   -2.2951   -2.0560    1.6554 C   0  0  0  0  0  0  0  0  0  0  0  0
   -1.2394   -0.9495    1.5961 C   0  0  0  0  0  0  0  0  0  0  0  0
   -0.0365   -1.5542    1.1110 O   0  0  0  0  0  0  0  0  0  0  0  0
    0.3671   -0.9964   -0.1434 C   0  0  0  0  0  0  0  0  0  0  0  0
    1.5204   -1.8452   -0.6745 C   0  0  0  0  0  0  0  0  0  0  0  0
    2.2770   -1.1647   -1.8088 C   0  0  0  0  0  0  0  0  0  0  0  0
    2.7866    0.2077   -1.3798 C   0  0  0  0  0  0  0  0  0  0  0  0
    1.6320    1.1137   -0.9631 C   0  0  0  0  0  0  0  0  0  0  0  0
    0.7928    0.4884    0.1648 C   0  0  0  0  0  0  0  0  0  0  0  0
   -0.5206    1.2983    0.5232 C   0  0  0  0  0  0  0  0  0  0  0  0
   -0.3162    2.2188    1.6303 C   0  0  0  0  0  0  0  0  0  0  0  0
   -0.1331    2.9330    2.5239 N   0  0  0  0  0  0  0  0  0  0  0  0
   -1.1411    1.9448   -0.7168 C   0  0  0  0  0  0  0  0  0  0  0  0
   -1.1781    3.1741   -1.0704 N   0  0  0  0  0  0  0  0  0  0  0  0
   -1.6602    0.9564   -1.5176 N   0  0  0  0  0  0  0  0  0  0  0  0
   -1.5897   -0.0541   -0.7150 C   0  0  0  0  0  0  0  0  0  0  0  0
   -0.7542   -1.0623   -1.0482 O   0  0  0  0  0  0  0  0  0  0  0  0
   -1.6342    0.2618    0.7528 C   0  0  0  0  0  0  0  0  0  0  0  0
   -2.9213    0.8279    1.1679 C   0  0  0  0  0  0  0  0  0  0  0  0
   -3.9294    1.2666    1.5342 N   0  0  0  0  0  0  0  0  0  0  0  0
   -1.9137   -2.9105    2.2259 H   0  0  0  0  0  0  0  0  0  0  0  0
   -2.5340   -2.4339    0.6556 H   0  0  0  0  0  0  0  0  0  0  0  0
   -3.2190   -1.7167    2.1320 H   0  0  0  0  0  0  0  0  0  0  0  0
   -1.0346   -0.6319    2.6262 H   0  0  0  0  0  0  0  0  0  0  0  0
    2.2209   -2.0693    0.1407 H   0  0  0  0  0  0  0  0  0  0  0  0
    1.1400   -2.8124   -1.0258 H   0  0  0  0  0  0  0  0  0  0  0  0
    3.1238   -1.7915   -2.1106 H   0  0  0  0  0  0  0  0  0  0  0  0
    1.6251   -1.0633   -2.6848 H   0  0  0  0  0  0  0  0  0  0  0  0
    3.4938    0.1005   -0.5485 H   0  0  0  0  0  0  0  0  0  0  0  0
    3.3337    0.6708   -2.2088 H   0  0  0  0  0  0  0  0  0  0  0  0
    1.0266    1.3018   -1.8559 H   0  0  0  0  0  0  0  0  0  0  0  0
    2.0251    2.0832   -0.6356 H   0  0  0  0  0  0  0  0  0  0  0  0
    1.4317    0.4538    1.0611 H   0  0  0  0  0  0  0  0  0  0  0  0
   -0.7460    3.8102   -0.3930 H   0  0  0  0  0  0  0  0  0  0  0  0
  1  2  1  0
  2  3  1  0
  3  4  1  0
  4  5  1  0
  5  6  1  0
  6  7  1  0
  7  8  1  0
  8  9  1  0
  9 10  1  0
 10 11  1  0
 11 12  3  0
 10 13  1  0
 13 14  2  3
 13 15  1  0
 15 16  2  0
 16 17  1  0
 16 18  1  0
 18 19  1  0
 19 20  3  0
 18  2  1  0
  9  4  1  0
 17  4  1  0
 18 10  1  0
  1 21  1  0
  1 22  1  0
  1 23  1  0
  2 24  1  0
  5 25  1  0
  5 26  1  0
  6 27  1  0
  6 28  1  0
  7 29  1  0
  7 30  1  0
  8 31  1  0
  8 32  1  0
  9 33  1  0
 14 34  1  0
M  END
>  <Unnamed: 0>  (173) 
995

>  <ID>  (173) 
TRAIN_0995

>  <Canonical_Smiles>  (173) 
CC1OC23CCCCC2C4(C#N)C(=N)N=C(O3)C14C#N

>  <Inhibition>  (173) 
24.5

>  <TDC_conf_true_inhibitor>  (173) 
0

>  <TDC_conf_non_inhibitor>  (173) 
1

>  <split>  (173) 
1

$$$$
173
     RDKit          3D

 46 49  0  0  0  0  0  0  0  0999 V2000
   -2.9873   -3.2790   -1.0735 C   0  0  0  0  0  0  0  0  0  0  0  0
   -3.2642   -2.5400    0.1357 N   0  0  0  0  0  0  0  0  0  0  0  0
   -4.1416   -3.0820    1.0057 N   0  0  0  0  0  0  0  0  0  0  0  0
   -4.2071   -2.1961    1.9964 C   0  0  0  0  0  0  0  0  0  0  0  0
   -3.3785   -1.0918    1.7649 C   0  0  0  0  0  0  0  0  0  0  0  0
   -2.7605   -1.3245    0.5439 C   0  0  0  0  0  0  0  0  0  0  0  0
   -1.8102   -0.4596   -0.1094 C   0  0  0  0  0  0  0  0  0  0  0  0
   -1.5208    0.7072    0.3931 N   0  0  0  0  0  0  0  0  0  0  0  0
   -0.5596    1.2539   -0.4165 N   0  0  0  0  0  0  0  0  0  0  0  0
   -0.0483    0.3100   -1.4046 C   0  0  0  0  0  0  0  0  0  0  0  0
   -1.1428   -0.7517   -1.4256 C   0  0  0  0  0  0  0  0  0  0  0  0
    1.3043   -0.2518   -1.0045 C   0  0  0  0  0  0  0  0  0  0  0  0
    2.4744    0.3888   -1.3865 C   0  0  0  0  0  0  0  0  0  0  0  0
    3.7039   -0.0693   -1.0562 N   0  0  0  0  0  0  0  0  0  0  0  0
    3.7498   -1.1820   -0.3008 C   0  0  0  0  0  0  0  0  0  0  0  0
    4.9794   -1.7001    0.0875 C   0  0  0  0  0  0  0  0  0  0  0  0
    5.0679   -2.8502    0.8732 C   0  0  0  0  0  0  0  0  0  0  0  0
    3.9059   -3.4940    1.2783 C   0  0  0  0  0  0  0  0  0  0  0  0
    2.6656   -2.9831    0.8925 C   0  0  0  0  0  0  0  0  0  0  0  0
    2.5657   -1.8396    0.1092 C   0  0  0  0  0  0  0  0  0  0  0  0
    1.3488   -1.3807   -0.2467 N   0  0  0  0  0  0  0  0  0  0  0  0
   -0.1130    2.5536   -0.2885 C   0  0  0  0  0  0  0  0  0  0  0  0
    0.7364    3.0269   -1.0444 O   0  0  0  0  0  0  0  0  0  0  0  0
   -0.7411    3.3492    0.8425 C   0  0  0  0  0  0  0  0  0  0  0  0
   -0.2138    4.7781    0.9023 C   0  0  0  0  0  0  0  0  0  0  0  0
   -0.6099    5.6354   -0.2700 C   0  0  0  0  0  0  0  0  0  0  0  0
   -0.0619    6.6758   -0.5994 O   0  0  0  0  0  0  0  0  0  0  0  0
   -1.7094    5.2213   -0.9240 O   0  0  0  0  0  0  0  0  0  0  0  0
   -3.6775   -4.1243   -1.1517 H   0  0  0  0  0  0  0  0  0  0  0  0
   -1.9623   -3.6523   -1.0223 H   0  0  0  0  0  0  0  0  0  0  0  0
   -3.1352   -2.6213   -1.9321 H   0  0  0  0  0  0  0  0  0  0  0  0
   -4.8539   -2.3936    2.8416 H   0  0  0  0  0  0  0  0  0  0  0  0
   -3.2350   -0.2278    2.3999 H   0  0  0  0  0  0  0  0  0  0  0  0
    0.0333    0.7979   -2.3832 H   0  0  0  0  0  0  0  0  0  0  0  0
   -1.8690   -0.5455   -2.2199 H   0  0  0  0  0  0  0  0  0  0  0  0
   -0.7810   -1.7754   -1.5203 H   0  0  0  0  0  0  0  0  0  0  0  0
    2.4649    1.3021   -1.9744 H   0  0  0  0  0  0  0  0  0  0  0  0
    5.8874   -1.1919   -0.2282 H   0  0  0  0  0  0  0  0  0  0  0  0
    6.0411   -3.2353    1.1671 H   0  0  0  0  0  0  0  0  0  0  0  0
    3.9600   -4.3885    1.8941 H   0  0  0  0  0  0  0  0  0  0  0  0
    1.7557   -3.4851    1.2121 H   0  0  0  0  0  0  0  0  0  0  0  0
   -1.8306    3.3413    0.7278 H   0  0  0  0  0  0  0  0  0  0  0  0
   -0.4936    2.8454    1.7845 H   0  0  0  0  0  0  0  0  0  0  0  0
    0.8810    4.7693    0.9548 H   0  0  0  0  0  0  0  0  0  0  0  0
   -0.5981    5.2663    1.8045 H   0  0  0  0  0  0  0  0  0  0  0  0
   -1.8195    5.8938   -1.6290 H   0  0  0  0  0  0  0  0  0  0  0  0
  1  2  1  0
  2  3  1  0
  3  4  2  0
  4  5  1  0
  5  6  2  0
  6  7  1  0
  7  8  2  0
  8  9  1  0
  9 10  1  0
 10 11  1  0
 10 12  1  0
 12 13  2  0
 13 14  1  0
 14 15  2  0
 15 16  1  0
 16 17  2  0
 17 18  1  0
 18 19  2  0
 19 20  1  0
 20 21  2  0
  9 22  1  0
 22 23  2  0
 22 24  1  0
 24 25  1  0
 25 26  1  0
 26 27  2  0
 26 28  1  0
  6  2  1  0
 11  7  1  0
 21 12  1  0
 20 15  1  0
  1 29  1  0
  1 30  1  0
  1 31  1  0
  4 32  1  0
  5 33  1  0
 10 34  1  0
 11 35  1  0
 11 36  1  0
 13 37  1  0
 16 38  1  0
 17 39  1  0
 18 40  1  0
 19 41  1  0
 24 42  1  0
 24 43  1  0
 25 44  1  0
 25 45  1  0
 28 46  1  0
M  END
>  <Unnamed: 0>  (174) 
1006

>  <ID>  (174) 
TRAIN_1006

>  <Canonical_Smiles>  (174) 
Cn1nccc1C2=NN(C(C2)c3cnc4ccccc4n3)C(=O)CCC(=O)O

>  <Inhibition>  (174) 
23.2

>  <TDC_conf_true_inhibitor>  (174) 
0

>  <TDC_conf_non_inhibitor>  (174) 
1

>  <split>  (174) 
1

$$$$
174
     RDKit          3D

 42 46  0  0  0  0  0  0  0  0999 V2000
   -2.0986    2.2205   -2.0291 F   0  0  0  0  0  0  0  0  0  0  0  0
   -1.0357    1.6302   -1.4669 C   0  0  0  0  0  0  0  0  0  0  0  0
    0.2078    2.1821   -1.6303 C   0  0  0  0  0  0  0  0  0  0  0  0
    1.3388    1.6259   -1.1608 N   0  0  0  0  0  0  0  0  0  0  0  0
    1.2278    0.4551   -0.5132 C   0  0  0  0  0  0  0  0  0  0  0  0
    0.0350   -0.1507   -0.3265 N   0  0  0  0  0  0  0  0  0  0  0  0
   -1.1043    0.4366   -0.7735 C   0  0  0  0  0  0  0  0  0  0  0  0
   -2.3113   -0.2318   -0.5522 N   0  0  0  0  0  0  0  0  0  0  0  0
   -2.2600   -1.6411   -0.1293 C   0  0  0  0  0  0  0  0  0  0  0  0
   -3.7103   -2.1544   -0.1068 C   0  0  0  0  0  0  0  0  0  0  0  0
   -4.4535   -0.8760    0.0901 C   0  0  0  0  0  0  0  0  0  0  0  0
   -5.7791   -0.7079    0.4591 C   0  0  0  0  0  0  0  0  0  0  0  0
   -6.2645    0.5919    0.5810 C   0  0  0  0  0  0  0  0  0  0  0  0
   -5.4244    1.6862    0.3348 C   0  0  0  0  0  0  0  0  0  0  0  0
   -4.0900    1.4955   -0.0470 C   0  0  0  0  0  0  0  0  0  0  0  0
   -3.6051    0.2066   -0.1866 C   0  0  0  0  0  0  0  0  0  0  0  0
    2.3660   -0.1732   -0.0252 N   0  0  0  0  0  0  0  0  0  0  0  0
    2.2117   -1.3549    0.8291 C   0  0  0  0  0  0  0  0  0  0  0  0
    3.6228   -1.8705    1.1708 C   0  0  0  0  0  0  0  0  0  0  0  0
    4.4716   -0.7009    0.8030 C   0  0  0  0  0  0  0  0  0  0  0  0
    5.8251   -0.5204    1.0443 C   0  0  0  0  0  0  0  0  0  0  0  0
    6.4275    0.6425    0.5679 C   0  0  0  0  0  0  0  0  0  0  0  0
    5.6759    1.5889   -0.1418 C   0  0  0  0  0  0  0  0  0  0  0  0
    4.3118    1.3845   -0.3819 C   0  0  0  0  0  0  0  0  0  0  0  0
    3.7062    0.2347    0.0966 C   0  0  0  0  0  0  0  0  0  0  0  0
    0.3314    3.1127   -2.1731 H   0  0  0  0  0  0  0  0  0  0  0  0
   -1.8289   -1.7147    0.8792 H   0  0  0  0  0  0  0  0  0  0  0  0
   -1.6524   -2.2548   -0.8055 H   0  0  0  0  0  0  0  0  0  0  0  0
   -3.8692   -2.8711    0.7035 H   0  0  0  0  0  0  0  0  0  0  0  0
   -3.9853   -2.6043   -1.0665 H   0  0  0  0  0  0  0  0  0  0  0  0
   -6.4220   -1.5602    0.6518 H   0  0  0  0  0  0  0  0  0  0  0  0
   -7.2983    0.7605    0.8723 H   0  0  0  0  0  0  0  0  0  0  0  0
   -5.8119    2.6967    0.4422 H   0  0  0  0  0  0  0  0  0  0  0  0
   -3.4642    2.3637   -0.2110 H   0  0  0  0  0  0  0  0  0  0  0  0
    1.6343   -2.1488    0.3394 H   0  0  0  0  0  0  0  0  0  0  0  0
    1.6900   -1.0807    1.7563 H   0  0  0  0  0  0  0  0  0  0  0  0
    3.7058   -2.1343    2.2291 H   0  0  0  0  0  0  0  0  0  0  0  0
    3.8827   -2.7353    0.5513 H   0  0  0  0  0  0  0  0  0  0  0  0
    6.4039   -1.2626    1.5838 H   0  0  0  0  0  0  0  0  0  0  0  0
    7.4866    0.8157    0.7411 H   0  0  0  0  0  0  0  0  0  0  0  0
    6.1558    2.4908   -0.5137 H   0  0  0  0  0  0  0  0  0  0  0  0
    3.7505    2.1273   -0.9377 H   0  0  0  0  0  0  0  0  0  0  0  0
  1  2  1  0
  2  3  2  0
  3  4  1  0
  4  5  2  0
  5  6  1  0
  6  7  2  0
  7  8  1  0
  8  9  1  0
  9 10  1  0
 10 11  1  0
 11 12  2  0
 12 13  1  0
 13 14  2  0
 14 15  1  0
 15 16  2  0
  5 17  1  0
 17 18  1  0
 18 19  1  0
 19 20  1  0
 20 21  2  0
 21 22  1  0
 22 23  2  0
 23 24  1  0
 24 25  2  0
  7  2  1  0
 16  8  1  0
 16 11  1  0
 25 17  1  0
 25 20  1  0
  3 26  1  0
  9 27  1  0
  9 28  1  0
 10 29  1  0
 10 30  1  0
 12 31  1  0
 13 32  1  0
 14 33  1  0
 15 34  1  0
 18 35  1  0
 18 36  1  0
 19 37  1  0
 19 38  1  0
 21 39  1  0
 22 40  1  0
 23 41  1  0
 24 42  1  0
M  END
>  <Unnamed: 0>  (175) 
1009

>  <ID>  (175) 
TRAIN_1009

>  <Canonical_Smiles>  (175) 
Fc1cnc(nc1N2CCc3ccccc23)N4CCc5ccccc45

>  <Inhibition>  (175) 
20.7

>  <TDC_conf_true_inhibitor>  (175) 
0

>  <TDC_conf_non_inhibitor>  (175) 
1

>  <split>  (175) 
1

$$$$
175
     RDKit          3D

 45 48  0  0  0  0  0  0  0  0999 V2000
    5.0942    1.6342   -0.1285 O   0  0  0  0  0  0  0  0  0  0  0  0
    5.6627    0.3950   -0.0470 C   0  0  0  0  0  0  0  0  0  0  0  0
    6.8277    0.2181    0.7014 C   0  0  0  0  0  0  0  0  0  0  0  0
    7.4347   -1.0391    0.7569 C   0  0  0  0  0  0  0  0  0  0  0  0
    6.8863   -2.1164    0.0601 C   0  0  0  0  0  0  0  0  0  0  0  0
    5.7215   -1.9411   -0.6875 C   0  0  0  0  0  0  0  0  0  0  0  0
    5.0959   -0.6878   -0.7265 C   0  0  0  0  0  0  0  0  0  0  0  0
    3.8732   -0.5565   -1.5473 C   0  0  0  0  0  0  0  0  0  0  0  0
    3.9419   -0.8548   -2.7386 O   0  0  0  0  0  0  0  0  0  0  0  0
    2.6161   -0.1555   -0.9182 C   0  0  0  0  0  0  0  0  0  0  0  0
    2.3404   -0.0123    0.4292 C   0  0  0  0  0  0  0  0  0  0  0  0
    1.0317    0.3705    0.5694 N   0  0  0  0  0  0  0  0  0  0  0  0
    0.4226    0.4561   -0.6625 C   0  0  0  0  0  0  0  0  0  0  0  0
    1.3941    0.1374   -1.5960 C   0  0  0  0  0  0  0  0  0  0  0  0
   -0.9759    0.8480   -0.8397 C   0  0  0  0  0  0  0  0  0  0  0  0
   -1.3527    1.6389   -1.9188 C   0  0  0  0  0  0  0  0  0  0  0  0
   -2.6797    2.0043   -2.0250 C   0  0  0  0  0  0  0  0  0  0  0  0
   -3.6385    1.6287   -1.1511 N   0  0  0  0  0  0  0  0  0  0  0  0
   -3.2939    0.8302   -0.1190 C   0  0  0  0  0  0  0  0  0  0  0  0
   -1.9645    0.4433    0.0643 C   0  0  0  0  0  0  0  0  0  0  0  0
   -4.2751    0.4351    0.7915 N   0  0  0  0  0  0  0  0  0  0  0  0
   -4.3188   -0.9909    1.1701 C   0  0  0  0  0  0  0  0  0  0  0  0
   -5.7144   -1.5887    0.9211 C   0  0  0  0  0  0  0  0  0  0  0  0
   -6.7644   -0.8980    1.6120 O   0  0  0  0  0  0  0  0  0  0  0  0
   -6.5653    0.5249    1.6678 C   0  0  0  0  0  0  0  0  0  0  0  0
   -5.5955    1.0627    0.6040 C   0  0  0  0  0  0  0  0  0  0  0  0
    5.6690    2.2839    0.3086 H   0  0  0  0  0  0  0  0  0  0  0  0
    7.2805    1.0450    1.2407 H   0  0  0  0  0  0  0  0  0  0  0  0
    8.3450   -1.1773    1.3360 H   0  0  0  0  0  0  0  0  0  0  0  0
    7.3692   -3.0902    0.0927 H   0  0  0  0  0  0  0  0  0  0  0  0
    5.3017   -2.7774   -1.2427 H   0  0  0  0  0  0  0  0  0  0  0  0
    2.9643   -0.1375    1.3039 H   0  0  0  0  0  0  0  0  0  0  0  0
    0.5812    0.5801    1.4500 H   0  0  0  0  0  0  0  0  0  0  0  0
    1.2541    0.1056   -2.6702 H   0  0  0  0  0  0  0  0  0  0  0  0
   -0.6329    1.9849   -2.6522 H   0  0  0  0  0  0  0  0  0  0  0  0
   -3.0214    2.6339   -2.8413 H   0  0  0  0  0  0  0  0  0  0  0  0
   -1.7036   -0.1724    0.9174 H   0  0  0  0  0  0  0  0  0  0  0  0
   -3.5855   -1.5968    0.6256 H   0  0  0  0  0  0  0  0  0  0  0  0
   -4.0837   -1.0563    2.2387 H   0  0  0  0  0  0  0  0  0  0  0  0
   -5.9511   -1.5823   -0.1495 H   0  0  0  0  0  0  0  0  0  0  0  0
   -5.7373   -2.6323    1.2511 H   0  0  0  0  0  0  0  0  0  0  0  0
   -6.1956    0.7620    2.6722 H   0  0  0  0  0  0  0  0  0  0  0  0
   -7.5465    0.9979    1.5594 H   0  0  0  0  0  0  0  0  0  0  0  0
   -5.5180    2.1513    0.7108 H   0  0  0  0  0  0  0  0  0  0  0  0
   -5.9935    0.8324   -0.3929 H   0  0  0  0  0  0  0  0  0  0  0  0
  1  2  1  0
  2  3  2  0
  3  4  1  0
  4  5  2  0
  5  6  1  0
  6  7  2  0
  7  8  1  0
  8  9  2  0
  8 10  1  0
 10 11  2  0
 11 12  1  0
 12 13  1  0
 13 14  2  0
 13 15  1  0
 15 16  2  0
 16 17  1  0
 17 18  2  0
 18 19  1  0
 19 20  2  0
 19 21  1  0
 21 22  1  0
 22 23  1  0
 23 24  1  0
 24 25  1  0
 25 26  1  0
  7  2  1  0
 14 10  1  0
 20 15  1  0
 26 21  1  0
  1 27  1  0
  3 28  1  0
  4 29  1  0
  5 30  1  0
  6 31  1  0
 11 32  1  0
 12 33  1  0
 14 34  1  0
 16 35  1  0
 17 36  1  0
 20 37  1  0
 22 38  1  0
 22 39  1  0
 23 40  1  0
 23 41  1  0
 25 42  1  0
 25 43  1  0
 26 44  1  0
 26 45  1  0
M  END
>  <Unnamed: 0>  (176) 
1015

>  <ID>  (176) 
TRAIN_1015

>  <Canonical_Smiles>  (176) 
Oc1ccccc1C(=O)c2c[nH]c(c2)c3ccnc(c3)N4CCOCC4

>  <Inhibition>  (176) 
52.8

>  <TDC_conf_true_inhibitor>  (176) 
1

>  <TDC_conf_non_inhibitor>  (176) 
0

>  <split>  (176) 
1

$$$$
176
     RDKit          3D

 40 42  0  0  0  0  0  0  0  0999 V2000
    4.8111    1.0861    0.6160 C   0  0  0  0  0  0  0  0  0  0  0  0
    3.8825    0.0502    0.2084 N   0  0  0  0  0  0  0  0  0  0  0  0
    4.1478   -1.3112    0.2224 C   0  0  0  0  0  0  0  0  0  0  0  0
    3.0013   -1.9314   -0.2522 C   0  0  0  0  0  0  0  0  0  0  0  0
    2.0296   -0.9479   -0.5526 C   0  0  0  0  0  0  0  0  0  0  0  0
    0.7153   -1.0112   -1.0541 C   0  0  0  0  0  0  0  0  0  0  0  0
    0.0061    0.1821   -1.2316 C   0  0  0  0  0  0  0  0  0  0  0  0
    0.5808    1.4183   -0.9414 C   0  0  0  0  0  0  0  0  0  0  0  0
    1.8858    1.4919   -0.4463 C   0  0  0  0  0  0  0  0  0  0  0  0
    2.5972    0.2925   -0.2557 C   0  0  0  0  0  0  0  0  0  0  0  0
   -1.6536    0.1358   -1.8594 S   0  0  0  0  0  6  0  0  0  0  0  0
   -1.7639    1.1804   -2.8560 O   0  0  0  0  0  0  0  0  0  0  0  0
   -1.9934   -1.2364   -2.1739 O   0  0  0  0  0  0  0  0  0  0  0  0
   -2.5861    0.5932   -0.4986 N   0  0  0  0  0  0  0  0  0  0  0  0
   -2.4460   -0.2888    0.6952 C   0  0  0  0  0  0  0  0  0  0  0  0
   -3.4948    0.0628    1.7432 C   0  0  0  0  0  0  0  0  0  0  0  0
   -4.9083   -0.1797    1.2189 C   0  0  0  0  0  0  0  0  0  0  0  0
   -4.9936   -0.0399   -0.2992 C   0  0  0  0  0  0  0  0  0  0  0  0
   -3.9916    0.9780   -0.8260 C   0  0  0  0  0  0  0  0  0  0  0  0
    5.3462   -2.0035    0.6304 C   0  0  0  0  0  0  0  0  0  0  0  0
    5.5374   -3.2103    0.6285 O   0  0  0  0  0  0  0  0  0  0  0  0
    6.3231   -1.1768    1.0512 O   0  0  0  0  0  0  0  0  0  0  0  0
    5.0613    0.9333    1.6688 H   0  0  0  0  0  0  0  0  0  0  0  0
    5.6965    1.0296   -0.0222 H   0  0  0  0  0  0  0  0  0  0  0  0
    4.3619    2.0737    0.5031 H   0  0  0  0  0  0  0  0  0  0  0  0
    2.8856   -3.0028   -0.3689 H   0  0  0  0  0  0  0  0  0  0  0  0
    0.2686   -1.9720   -1.2953 H   0  0  0  0  0  0  0  0  0  0  0  0
    0.0148    2.3348   -1.0999 H   0  0  0  0  0  0  0  0  0  0  0  0
    2.3225    2.4605   -0.2248 H   0  0  0  0  0  0  0  0  0  0  0  0
   -2.5405   -1.3435    0.4136 H   0  0  0  0  0  0  0  0  0  0  0  0
   -1.4550   -0.1368    1.1348 H   0  0  0  0  0  0  0  0  0  0  0  0
   -3.3894    1.1190    2.0229 H   0  0  0  0  0  0  0  0  0  0  0  0
   -3.3344   -0.5218    2.6560 H   0  0  0  0  0  0  0  0  0  0  0  0
   -5.2485   -1.1826    1.5030 H   0  0  0  0  0  0  0  0  0  0  0  0
   -5.5934    0.5271    1.7020 H   0  0  0  0  0  0  0  0  0  0  0  0
   -6.0122    0.2453   -0.5851 H   0  0  0  0  0  0  0  0  0  0  0  0
   -4.7989   -1.0149   -0.7640 H   0  0  0  0  0  0  0  0  0  0  0  0
   -4.1795    1.9643   -0.3847 H   0  0  0  0  0  0  0  0  0  0  0  0
   -4.1330    1.0929   -1.9057 H   0  0  0  0  0  0  0  0  0  0  0  0
    7.0410   -1.8037    1.2794 H   0  0  0  0  0  0  0  0  0  0  0  0
  1  2  1  0
  2  3  1  0
  3  4  2  0
  4  5  1  0
  5  6  2  0
  6  7  1  0
  7  8  2  0
  8  9  1  0
  9 10  2  0
  7 11  1  0
 11 12  2  0
 11 13  2  0
 11 14  1  0
 14 15  1  0
 15 16  1  0
 16 17  1  0
 17 18  1  0
 18 19  1  0
  3 20  1  0
 20 21  2  0
 20 22  1  0
 10  2  1  0
 10  5  1  0
 19 14  1  0
  1 23  1  0
  1 24  1  0
  1 25  1  0
  4 26  1  0
  6 27  1  0
  8 28  1  0
  9 29  1  0
 15 30  1  0
 15 31  1  0
 16 32  1  0
 16 33  1  0
 17 34  1  0
 17 35  1  0
 18 36  1  0
 18 37  1  0
 19 38  1  0
 19 39  1  0
 22 40  1  0
M  END
>  <Unnamed: 0>  (177) 
1019

>  <ID>  (177) 
TRAIN_1019

>  <Canonical_Smiles>  (177) 
Cn1c(cc2cc(ccc12)S(=O)(=O)N3CCCCC3)C(=O)O

>  <Inhibition>  (177) 
14.6

>  <TDC_conf_true_inhibitor>  (177) 
0

>  <TDC_conf_non_inhibitor>  (177) 
1

>  <split>  (177) 
1

$$$$
177
     RDKit          3D

 59 60  0  0  0  0  0  0  0  0999 V2000
    0.6828    0.0000    0.0000 Cl  0  0  0  0  0  0  0  0  0  0  0  0
    5.6746   -1.7405    0.8125 C   0  0  0  0  0  0  0  0  0  0  0  0
    4.3647   -1.7374    0.0023 C   0  0  0  0  0  0  0  0  0  0  0  0
    3.9954   -0.4082   -0.1707 N   0  0  0  0  0  0  0  0  0  0  0  0
    4.7767    0.4169   -1.0351 C   0  0  0  0  0  0  0  0  0  0  0  0
    4.4355    1.8736   -0.7939 C   0  0  0  0  0  0  0  0  0  0  0  0
    2.6254   -0.0324   -0.0927 C   0  0  0  0  0  0  0  0  0  0  0  0
    2.0157   -0.1128    1.3159 C   0  0  0  0  0  0  0  0  0  0  0  0
    0.6142    0.5372    1.2690 C   0  0  0  0  0  0  0  0  0  0  0  0
   -0.3282   -0.1985    0.5444 N   0  0  0  0  0  0  0  0  0  0  0  0
   -1.5679    0.1369   -0.0430 C   0  0  0  0  0  0  0  0  0  0  0  0
   -1.9628    1.4205   -0.2133 C   0  0  0  0  0  0  0  0  0  0  0  0
   -1.3648    2.5108    0.6157 C   0  0  0  0  0  0  0  0  0  0  0  0
   -2.4276    2.7081    1.7529 C   0  0  0  0  0  0  0  0  0  0  0  0
   -2.7859    3.8958    2.0583 C   0  0  0  0  0  0  0  0  0  0  0  0
   -3.1100    1.7595   -0.8668 C   0  0  0  0  0  0  0  0  0  0  0  0
   -3.4224    3.1716   -1.1564 C   0  0  0  0  0  0  0  0  0  0  0  0
   -3.9591    0.7455   -1.3969 C   0  0  0  0  0  0  0  0  0  0  0  0
   -5.1481    1.2409   -1.8286 C   0  0  0  0  0  0  0  0  0  0  0  0
   -6.2806    1.6986   -2.2185 N   0  0  0  0  0  0  0  0  0  0  0  0
   -3.5612   -0.5628   -1.2021 C   0  0  0  0  0  0  0  0  0  0  0  0
   -4.1849   -1.6946   -1.5029 N   0  0  0  0  0  0  0  0  0  0  0  0
   -3.4462   -2.7502   -1.0438 C   0  0  0  0  0  0  0  0  0  0  0  0
   -3.7295   -4.0803   -1.0062 C   0  0  0  0  0  0  0  0  0  0  0  0
   -2.8917   -4.9914   -0.3433 C   0  0  0  0  0  0  0  0  0  0  0  0
   -1.7605   -4.4499    0.2898 C   0  0  0  0  0  0  0  0  0  0  0  0
   -1.5006   -3.0768    0.2326 C   0  0  0  0  0  0  0  0  0  0  0  0
   -2.3331   -2.1763   -0.4425 C   0  0  0  0  0  0  0  0  0  0  0  0
   -2.3767   -0.8403   -0.5367 N   0  0  0  0  0  0  0  0  0  0  0  0
   -0.6828    0.0000    0.0000 H   0  0  0  0  0  0  0  0  0  0  0  0
    6.3345   -0.9182    0.5379 H   0  0  0  0  0  0  0  0  0  0  0  0
    6.1834   -2.7068    0.6174 H   0  0  0  0  0  0  0  0  0  0  0  0
    5.4492   -1.6966    1.9001 H   0  0  0  0  0  0  0  0  0  0  0  0
    3.6366   -2.2759    0.6148 H   0  0  0  0  0  0  0  0  0  0  0  0
    4.5481   -2.3021   -0.9398 H   0  0  0  0  0  0  0  0  0  0  0  0
    4.5518    0.2565   -2.1116 H   0  0  0  0  0  0  0  0  0  0  0  0
    5.8839    0.2552   -0.9606 H   0  0  0  0  0  0  0  0  0  0  0  0
    3.8811    2.3501   -1.5929 H   0  0  0  0  0  0  0  0  0  0  0  0
    5.4004    2.4951   -0.6813 H   0  0  0  0  0  0  0  0  0  0  0  0
    3.9217    2.0753    0.1705 H   0  0  0  0  0  0  0  0  0  0  0  0
    1.9935   -0.6853   -0.7576 H   0  0  0  0  0  0  0  0  0  0  0  0
    2.4908    0.9913   -0.4632 H   0  0  0  0  0  0  0  0  0  0  0  0
    1.9661   -1.1820    1.6160 H   0  0  0  0  0  0  0  0  0  0  0  0
    2.6447    0.4443    2.0087 H   0  0  0  0  0  0  0  0  0  0  0  0
    0.9572    1.5066    0.7242 H   0  0  0  0  0  0  0  0  0  0  0  0
    0.3781    0.6860    2.3139 H   0  0  0  0  0  0  0  0  0  0  0  0
   -0.0165   -1.1869    0.3170 H   0  0  0  0  0  0  0  0  0  0  0  0
   -0.5129    2.4113    1.2017 H   0  0  0  0  0  0  0  0  0  0  0  0
   -1.3737    3.4683    0.0127 H   0  0  0  0  0  0  0  0  0  0  0  0
   -2.7654    1.7912    2.1871 H   0  0  0  0  0  0  0  0  0  0  0  0
   -3.5334    4.0151    2.8553 H   0  0  0  0  0  0  0  0  0  0  0  0
   -2.4384    4.7951    1.6193 H   0  0  0  0  0  0  0  0  0  0  0  0
   -4.1154    3.6928   -0.4453 H   0  0  0  0  0  0  0  0  0  0  0  0
   -3.9067    3.2199   -2.1882 H   0  0  0  0  0  0  0  0  0  0  0  0
   -2.4472    3.7266   -1.3502 H   0  0  0  0  0  0  0  0  0  0  0  0
   -4.5759   -4.4851   -1.5126 H   0  0  0  0  0  0  0  0  0  0  0  0
   -3.1740   -6.0123   -0.2885 H   0  0  0  0  0  0  0  0  0  0  0  0
   -1.1292   -5.1618    0.8777 H   0  0  0  0  0  0  0  0  0  0  0  0
   -0.5930   -2.8315    0.7176 H   0  0  0  0  0  0  0  0  0  0  0  0
  2  3  1  0
  3  4  1  0
  4  5  1  0
  5  6  1  0
  4  7  1  0
  7  8  1  0
  8  9  1  0
  9 10  1  0
 10 11  1  0
 11 12  2  0
 12 13  1  0
 13 14  1  0
 14 15  2  0
 12 16  1  0
 16 17  1  0
 16 18  2  0
 18 19  1  0
 19 20  3  0
 18 21  1  0
 21 22  2  0
 22 23  1  0
 23 24  2  0
 24 25  1  0
 25 26  2  0
 26 27  1  0
 27 28  2  0
 28 29  1  0
 29 11  1  0
 29 21  1  0
 28 23  1  0
  1 30  1  0
  2 31  1  0
  2 32  1  0
  2 33  1  0
  3 34  1  0
  3 35  1  0
  5 36  1  0
  5 37  1  0
  6 38  1  0
  6 39  1  0
  6 40  1  0
  7 41  1  0
  7 42  1  0
  8 43  1  0
  8 44  1  0
  9 45  1  0
  9 46  1  0
 10 47  1  0
 13 48  1  0
 13 49  1  0
 14 50  1  0
 15 51  1  0
 15 52  1  0
 17 53  1  0
 17 54  1  0
 17 55  1  0
 24 56  1  0
 25 57  1  0
 26 58  1  0
 27 59  1  0
M  END
>  <Unnamed: 0>  (178) 
1022

>  <ID>  (178) 
TRAIN_1022

>  <Canonical_Smiles>  (178) 
Cl.CCN(CC)CCCNc1c(CC=C)c(C)c(C#N)c2nc3ccccc3n12

>  <Inhibition>  (178) 
26.2

>  <TDC_conf_true_inhibitor>  (178) 
0

>  <TDC_conf_non_inhibitor>  (178) 
1

>  <split>  (178) 
1

$$$$
178
     RDKit          3D

 39 41  0  0  0  0  0  0  0  0999 V2000
   -5.1079   -2.1815   -0.6481 C   0  0  0  0  0  0  0  0  0  0  0  0
   -3.9359   -1.7169    0.0068 O   0  0  0  0  0  0  0  0  0  0  0  0
   -3.7109   -0.3618    0.0161 C   0  0  0  0  0  0  0  0  0  0  0  0
   -4.5093    0.5787   -0.6441 C   0  0  0  0  0  0  0  0  0  0  0  0
   -4.1917    1.9371   -0.5875 C   0  0  0  0  0  0  0  0  0  0  0  0
   -3.0731    2.3628    0.1219 C   0  0  0  0  0  0  0  0  0  0  0  0
   -2.2687    1.4341    0.7845 C   0  0  0  0  0  0  0  0  0  0  0  0
   -2.5854    0.0717    0.7464 C   0  0  0  0  0  0  0  0  0  0  0  0
   -1.8473   -0.9164    1.3519 O   0  0  0  0  0  0  0  0  0  0  0  0
   -0.8845   -0.5442    2.3418 C   0  0  0  0  0  0  0  0  0  0  0  0
    0.4291   -0.2985    1.6808 C   0  0  0  0  0  0  0  0  0  0  0  0
    1.4130    0.4583    2.1242 N   0  0  0  0  0  0  0  0  0  0  0  0
    2.4007    0.3725    1.1714 C   0  0  0  0  0  0  0  0  0  0  0  0
    3.6619    0.9841    1.1420 C   0  0  0  0  0  0  0  0  0  0  0  0
    4.5123    0.7435    0.0516 C   0  0  0  0  0  0  0  0  0  0  0  0
    5.8531    1.4144   -0.0158 C   0  0  0  0  0  0  0  0  0  0  0  0
    4.0800   -0.0796   -1.0000 C   0  0  0  0  0  0  0  0  0  0  0  0
    2.8184   -0.7096   -1.0007 C   0  0  0  0  0  0  0  0  0  0  0  0
    2.4177   -1.5816   -2.1517 C   0  0  0  0  0  0  0  0  0  0  0  0
    2.0148   -0.4501    0.1187 C   0  0  0  0  0  0  0  0  0  0  0  0
    0.7570   -0.8660    0.4732 N   0  0  0  0  0  0  0  0  0  0  0  0
   -5.0688   -1.9707   -1.7218 H   0  0  0  0  0  0  0  0  0  0  0  0
   -6.0103   -1.7598   -0.1931 H   0  0  0  0  0  0  0  0  0  0  0  0
   -5.1509   -3.2680   -0.5250 H   0  0  0  0  0  0  0  0  0  0  0  0
   -5.3839    0.2875   -1.2157 H   0  0  0  0  0  0  0  0  0  0  0  0
   -4.8150    2.6628   -1.1041 H   0  0  0  0  0  0  0  0  0  0  0  0
   -2.8193    3.4197    0.1560 H   0  0  0  0  0  0  0  0  0  0  0  0
   -1.3929    1.8089    1.3064 H   0  0  0  0  0  0  0  0  0  0  0  0
   -0.7771   -1.3988    3.0192 H   0  0  0  0  0  0  0  0  0  0  0  0
   -1.2155    0.3015    2.9544 H   0  0  0  0  0  0  0  0  0  0  0  0
    3.9578    1.6303    1.9611 H   0  0  0  0  0  0  0  0  0  0  0  0
    5.7666    2.3708   -0.5405 H   0  0  0  0  0  0  0  0  0  0  0  0
    6.5781    0.7847   -0.5423 H   0  0  0  0  0  0  0  0  0  0  0  0
    6.2508    1.5965    0.9882 H   0  0  0  0  0  0  0  0  0  0  0  0
    4.7438   -0.2405   -1.8499 H   0  0  0  0  0  0  0  0  0  0  0  0
    2.4013   -0.9977   -3.0775 H   0  0  0  0  0  0  0  0  0  0  0  0
    1.4222   -2.0113   -2.0058 H   0  0  0  0  0  0  0  0  0  0  0  0
    3.1279   -2.4071   -2.2633 H   0  0  0  0  0  0  0  0  0  0  0  0
    0.1420   -1.4598   -0.0655 H   0  0  0  0  0  0  0  0  0  0  0  0
  1  2  1  0
  2  3  1  0
  3  4  2  0
  4  5  1  0
  5  6  2  0
  6  7  1  0
  7  8  2  0
  8  9  1  0
  9 10  1  0
 10 11  1  0
 11 12  2  0
 12 13  1  0
 13 14  2  0
 14 15  1  0
 15 16  1  0
 15 17  2  0
 17 18  1  0
 18 19  1  0
 18 20  2  0
 20 21  1  0
  8  3  1  0
 21 11  1  0
 20 13  1  0
  1 22  1  0
  1 23  1  0
  1 24  1  0
  4 25  1  0
  5 26  1  0
  6 27  1  0
  7 28  1  0
 10 29  1  0
 10 30  1  0
 14 31  1  0
 16 32  1  0
 16 33  1  0
 16 34  1  0
 17 35  1  0
 19 36  1  0
 19 37  1  0
 19 38  1  0
 21 39  1  0
M  END
>  <Unnamed: 0>  (179) 
1045

>  <ID>  (179) 
TRAIN_1045

>  <Canonical_Smiles>  (179) 
COc1ccccc1OCc2nc3cc(C)cc(C)c3[nH]2

>  <Inhibition>  (179) 
78.3

>  <TDC_conf_true_inhibitor>  (179) 
1

>  <TDC_conf_non_inhibitor>  (179) 
0

>  <split>  (179) 
1

$$$$
179
     RDKit          3D

 47 50  0  0  0  0  0  0  0  0999 V2000
   -6.5930    3.0375   -0.3378 C   0  0  0  0  0  0  0  0  0  0  0  0
   -5.9813    1.7477   -0.3811 O   0  0  0  0  0  0  0  0  0  0  0  0
   -4.7474    1.7046    0.1726 C   0  0  0  0  0  0  0  0  0  0  0  0
   -4.1539    2.6523    0.6714 O   0  0  0  0  0  0  0  0  0  0  0  0
   -4.1305    0.3553    0.0685 C   0  0  0  0  0  0  0  0  0  0  0  0
   -4.7238   -0.8270   -0.2022 C   0  0  0  0  0  0  0  0  0  0  0  0
   -6.1583   -1.1636   -0.4304 C   0  0  0  0  0  0  0  0  0  0  0  0
   -3.5232   -2.1373   -0.1967 S   0  0  0  0  0  0  0  0  0  0  0  0
   -2.2160   -0.9979    0.2226 C   0  0  0  0  0  0  0  0  0  0  0  0
   -1.0295   -1.4505    0.4031 N   0  0  0  0  0  0  0  0  0  0  0  0
   -0.0590   -0.5299    0.7164 C   0  0  0  0  0  0  0  0  0  0  0  0
   -0.2790    0.5614    1.2418 O   0  0  0  0  0  0  0  0  0  0  0  0
    1.3655   -1.0243    0.4136 C   0  0  0  0  0  0  0  0  0  0  0  0
    2.2539    0.0937    0.0859 N   0  0  0  0  0  0  0  0  0  0  0  0
    3.5360    0.1222    0.7500 C   0  0  0  0  0  0  0  0  0  0  0  0
    3.7964   -1.5482    1.3489 S   0  0  0  0  0  0  0  0  0  0  0  0
    1.9866   -1.8362    1.5757 C   0  0  0  0  0  0  0  0  0  0  0  0
    1.6034   -1.3422    2.9770 C   0  0  0  0  0  0  0  0  0  0  0  0
    1.6997   -3.3331    1.4458 C   0  0  0  0  0  0  0  0  0  0  0  0
    4.4630    0.6266   -0.2995 C   0  0  0  0  0  0  0  0  0  0  0  0
    5.8287    0.8515   -0.2603 C   0  0  0  0  0  0  0  0  0  0  0  0
    6.4439    1.3823   -1.4003 C   0  0  0  0  0  0  0  0  0  0  0  0
    5.6964    1.6827   -2.5549 C   0  0  0  0  0  0  0  0  0  0  0  0
    4.3198    1.4561   -2.5893 C   0  0  0  0  0  0  0  0  0  0  0  0
    3.7355    0.9394   -1.4489 C   0  0  0  0  0  0  0  0  0  0  0  0
    2.3390    0.5474   -1.2222 C   0  0  0  0  0  0  0  0  0  0  0  0
    1.4669    0.5313   -2.0690 O   0  0  0  0  0  0  0  0  0  0  0  0
   -2.7654    0.2485    0.2851 N   0  0  0  0  0  0  0  0  0  0  0  0
   -5.9992    3.7627   -0.9030 H   0  0  0  0  0  0  0  0  0  0  0  0
   -6.7239    3.3655    0.6983 H   0  0  0  0  0  0  0  0  0  0  0  0
   -7.5794    2.9601   -0.8033 H   0  0  0  0  0  0  0  0  0  0  0  0
   -6.3845   -1.1619   -1.5012 H   0  0  0  0  0  0  0  0  0  0  0  0
   -6.3977   -2.1570   -0.0346 H   0  0  0  0  0  0  0  0  0  0  0  0
   -6.8335   -0.4675    0.0739 H   0  0  0  0  0  0  0  0  0  0  0  0
    1.3062   -1.6461   -0.4919 H   0  0  0  0  0  0  0  0  0  0  0  0
    3.4706    0.8268    1.5860 H   0  0  0  0  0  0  0  0  0  0  0  0
    0.5441   -1.5328    3.1842 H   0  0  0  0  0  0  0  0  0  0  0  0
    1.7723   -0.2666    3.1006 H   0  0  0  0  0  0  0  0  0  0  0  0
    2.1743   -1.8622    3.7557 H   0  0  0  0  0  0  0  0  0  0  0  0
    2.2176   -3.9121    2.2194 H   0  0  0  0  0  0  0  0  0  0  0  0
    0.6279   -3.5339    1.5534 H   0  0  0  0  0  0  0  0  0  0  0  0
    2.0083   -3.7259    0.4700 H   0  0  0  0  0  0  0  0  0  0  0  0
    6.4128    0.6236    0.6265 H   0  0  0  0  0  0  0  0  0  0  0  0
    7.5170    1.5647   -1.3968 H   0  0  0  0  0  0  0  0  0  0  0  0
    6.1989    2.0892   -3.4300 H   0  0  0  0  0  0  0  0  0  0  0  0
    3.7289    1.6668   -3.4743 H   0  0  0  0  0  0  0  0  0  0  0  0
   -2.2351    1.0565    0.6041 H   0  0  0  0  0  0  0  0  0  0  0  0
  1  2  1  0
  2  3  1  0
  3  4  2  0
  3  5  1  0
  5  6  2  0
  6  7  1  0
  6  8  1  0
  8  9  1  0
  9 10  2  0
 10 11  1  0
 11 12  2  0
 11 13  1  0
 13 14  1  0
 14 15  1  0
 15 16  1  0
 16 17  1  0
 17 18  1  0
 17 19  1  0
 15 20  1  0
 20 21  2  0
 21 22  1  0
 22 23  2  0
 23 24  1  0
 24 25  2  0
 25 26  1  0
 26 27  2  0
  9 28  1  0
 28  5  1  0
 17 13  1  0
 26 14  1  0
 25 20  1  0
  1 29  1  0
  1 30  1  0
  1 31  1  0
  7 32  1  0
  7 33  1  0
  7 34  1  0
 13 35  1  0
 15 36  1  0
 18 37  1  0
 18 38  1  0
 18 39  1  0
 19 40  1  0
 19 41  1  0
 19 42  1  0
 21 43  1  0
 22 44  1  0
 23 45  1  0
 24 46  1  0
 28 47  1  0
M  END
>  <Unnamed: 0>  (180) 
1054

>  <ID>  (180) 
TRAIN_1054

>  <Canonical_Smiles>  (180) 
COC(=O)C1=C(C)S\C(=N\C(=O)C2N3C(SC2(C)C)c4ccccc4C3=O)\N1

>  <Inhibition>  (180) 
33.9

>  <TDC_conf_true_inhibitor>  (180) 
1

>  <TDC_conf_non_inhibitor>  (180) 
0

>  <split>  (180) 
1

$$$$
180
     RDKit          3D

 53 57  0  0  0  0  0  0  0  0999 V2000
    6.8374   -1.2390   -1.5202 C   0  0  0  0  0  0  0  0  0  0  0  0
    5.8731   -0.5349   -0.6102 C   0  0  0  0  0  0  0  0  0  0  0  0
    5.1844    0.6026   -1.0528 C   0  0  0  0  0  0  0  0  0  0  0  0
    4.2646    1.2414   -0.2202 C   0  0  0  0  0  0  0  0  0  0  0  0
    4.0207    0.7275    1.0562 C   0  0  0  0  0  0  0  0  0  0  0  0
    4.7002   -0.4039    1.5121 C   0  0  0  0  0  0  0  0  0  0  0  0
    5.6172   -1.0378    0.6727 C   0  0  0  0  0  0  0  0  0  0  0  0
    2.8384    1.5275    2.1032 S   0  0  0  0  0  6  0  0  0  0  0  0
    3.0827    2.9564    2.0570 O   0  0  0  0  0  0  0  0  0  0  0  0
    2.7314    0.8011    3.3537 O   0  0  0  0  0  0  0  0  0  0  0  0
    1.3547    1.2700    1.3020 N   0  0  0  0  0  0  0  0  0  0  0  0
    0.7481    2.2205    0.5139 C   0  0  0  0  0  0  0  0  0  0  0  0
   -0.3512    1.6336   -0.0792 C   0  0  0  0  0  0  0  0  0  0  0  0
   -1.3285    2.2134   -1.0456 C   0  0  0  0  0  0  0  0  0  0  0  0
   -2.7082    1.8555   -0.5371 C   0  0  0  0  0  0  0  0  0  0  0  0
   -3.5882    2.8977   -0.1986 C   0  0  0  0  0  0  0  0  0  0  0  0
   -4.8907    2.6283    0.2186 C   0  0  0  0  0  0  0  0  0  0  0  0
   -5.3412    1.3128    0.2994 C   0  0  0  0  0  0  0  0  0  0  0  0
   -4.4903    0.2432   -0.0195 C   0  0  0  0  0  0  0  0  0  0  0  0
   -5.0227   -1.1709    0.0613 C   0  0  0  0  0  0  0  0  0  0  0  0
   -5.6016   -1.7473   -1.2051 C   0  0  0  0  0  0  0  0  0  0  0  0
   -5.7146   -1.1579   -2.4035 C   0  0  0  0  0  0  0  0  0  0  0  0
   -3.1696    0.5218   -0.4265 C   0  0  0  0  0  0  0  0  0  0  0  0
   -2.3757   -0.5660   -0.7562 O   0  0  0  0  0  0  0  0  0  0  0  0
   -1.2759   -0.7632    0.0661 C   0  0  0  0  0  0  0  0  0  0  0  0
   -1.0377   -2.0446    0.5604 C   0  0  0  0  0  0  0  0  0  0  0  0
    0.0665   -2.2622    1.3913 C   0  0  0  0  0  0  0  0  0  0  0  0
    0.9584   -1.2257    1.7403 C   0  0  0  0  0  0  0  0  0  0  0  0
    0.7137    0.0507    1.1999 C   0  0  0  0  0  0  0  0  0  0  0  0
   -0.3777    0.2786    0.3597 C   0  0  0  0  0  0  0  0  0  0  0  0
    0.3074   -3.6126    1.9175 N   0  0  0  0  0  4  0  0  0  0  0  0
    1.4132   -3.8414    2.4279 O   0  0  0  0  0  0  0  0  0  0  0  0
   -0.6059   -4.4433    1.8130 O   0  0  0  0  0  1  0  0  0  0  0  0
    7.3163   -0.5311   -2.2048 H   0  0  0  0  0  0  0  0  0  0  0  0
    7.6337   -1.7237   -0.9456 H   0  0  0  0  0  0  0  0  0  0  0  0
    6.3111   -1.9982   -2.1067 H   0  0  0  0  0  0  0  0  0  0  0  0
    5.3685    1.0004   -2.0492 H   0  0  0  0  0  0  0  0  0  0  0  0
    3.7561    2.1356   -0.5734 H   0  0  0  0  0  0  0  0  0  0  0  0
    4.5256   -0.8032    2.5092 H   0  0  0  0  0  0  0  0  0  0  0  0
    6.1363   -1.9268    1.0270 H   0  0  0  0  0  0  0  0  0  0  0  0
    1.1426    3.2271    0.4442 H   0  0  0  0  0  0  0  0  0  0  0  0
   -1.1971    3.2990   -1.1180 H   0  0  0  0  0  0  0  0  0  0  0  0
   -1.1821    1.7961   -2.0485 H   0  0  0  0  0  0  0  0  0  0  0  0
   -3.2658    3.9349   -0.2666 H   0  0  0  0  0  0  0  0  0  0  0  0
   -5.5604    3.4468    0.4712 H   0  0  0  0  0  0  0  0  0  0  0  0
   -6.3668    1.1222    0.6091 H   0  0  0  0  0  0  0  0  0  0  0  0
   -5.7995   -1.2110    0.8366 H   0  0  0  0  0  0  0  0  0  0  0  0
   -4.2329   -1.8400    0.4230 H   0  0  0  0  0  0  0  0  0  0  0  0
   -5.9649   -2.7698   -1.1101 H   0  0  0  0  0  0  0  0  0  0  0  0
   -5.3766   -0.1429   -2.5865 H   0  0  0  0  0  0  0  0  0  0  0  0
   -6.1535   -1.6902   -3.2419 H   0  0  0  0  0  0  0  0  0  0  0  0
   -1.7214   -2.8486    0.2987 H   0  0  0  0  0  0  0  0  0  0  0  0
    1.7984   -1.4085    2.4058 H   0  0  0  0  0  0  0  0  0  0  0  0
  1  2  1  0
  2  3  2  0
  3  4  1  0
  4  5  2  0
  5  6  1  0
  6  7  2  0
  5  8  1  0
  8  9  2  0
  8 10  2  0
  8 11  1  0
 11 12  1  0
 12 13  2  0
 13 14  1  0
 14 15  1  0
 15 16  2  0
 16 17  1  0
 17 18  2  0
 18 19  1  0
 19 20  1  0
 20 21  1  0
 21 22  2  0
 19 23  2  0
 23 24  1  0
 24 25  1  0
 25 26  1  0
 26 27  2  0
 27 28  1  0
 28 29  2  0
 29 30  1  0
 27 31  1  0
 31 32  2  0
 31 33  1  0
  7  2  1  0
 29 11  1  0
 30 13  1  0
 23 15  1  0
 30 25  2  0
  1 34  1  0
  1 35  1  0
  1 36  1  0
  3 37  1  0
  4 38  1  0
  6 39  1  0
  7 40  1  0
 12 41  1  0
 14 42  1  0
 14 43  1  0
 16 44  1  0
 17 45  1  0
 18 46  1  0
 20 47  1  0
 20 48  1  0
 21 49  1  0
 22 50  1  0
 22 51  1  0
 26 52  1  0
 28 53  1  0
M  CHG  2  31   1  33  -1
M  END
>  <Unnamed: 0>  (181) 
1067

>  <ID>  (181) 
TRAIN_1067

>  <Canonical_Smiles>  (181) 
Cc1ccc(cc1)S(=O)(=O)n2cc3Cc4cccc(CC=C)c4Oc5cc(cc2c35)[N+](=O)[O-]

>  <Inhibition>  (181) 
64.2

>  <TDC_conf_true_inhibitor>  (181) 
1

>  <TDC_conf_non_inhibitor>  (181) 
0

>  <split>  (181) 
1

$$$$
181
     RDKit          3D

 52 55  0  0  0  0  0  0  0  0999 V2000
    2.2861    0.0837   -3.7969 C   0  0  0  0  0  0  0  0  0  0  0  0
    2.7234   -0.4664   -2.4740 C   0  0  0  0  0  0  0  0  0  0  0  0
    3.8369   -1.2963   -2.3706 C   0  0  0  0  0  0  0  0  0  0  0  0
    4.2339   -1.7906   -1.1306 C   0  0  0  0  0  0  0  0  0  0  0  0
    3.5239   -1.4721    0.0388 C   0  0  0  0  0  0  0  0  0  0  0  0
    3.9894   -2.0563    1.3438 C   0  0  0  0  0  0  0  0  0  0  0  0
    2.3826   -0.6494   -0.0495 C   0  0  0  0  0  0  0  0  0  0  0  0
    1.5791   -0.2541    1.1850 C   0  0  0  0  0  0  0  0  0  0  0  0
    0.1244   -0.3444    0.9907 N   0  0  0  0  0  0  0  0  0  0  0  0
   -0.4214   -1.6274    0.9870 C   0  0  0  0  0  0  0  0  0  0  0  0
    0.2543   -2.6199    1.2722 O   0  0  0  0  0  0  0  0  0  0  0  0
   -1.9019   -1.7579    0.7094 C   0  0  0  0  0  0  0  0  0  0  0  0
   -2.3647   -3.2197    0.5840 C   0  0  0  0  0  0  0  0  0  0  0  0
   -3.3605   -3.2413   -0.5708 C   0  0  0  0  0  0  0  0  0  0  0  0
   -2.7769   -2.2670   -1.5793 C   0  0  0  0  0  0  0  0  0  0  0  0
   -2.2315   -1.2248   -0.6501 C   0  0  0  0  0  0  0  0  0  0  0  0
   -2.1018   -0.0003   -1.0326 N   0  0  0  0  0  0  0  0  0  0  0  0
   -1.6917    0.9792   -0.1107 C   0  0  0  0  0  0  0  0  0  0  0  0
   -2.3674    2.2061   -0.2199 C   0  0  0  0  0  0  0  0  0  0  0  0
   -2.0460    3.3171    0.5709 C   0  0  0  0  0  0  0  0  0  0  0  0
   -2.8275    4.5918    0.4076 C   0  0  0  0  0  0  0  0  0  0  0  0
   -1.0115    3.1981    1.5068 C   0  0  0  0  0  0  0  0  0  0  0  0
   -0.6170    4.3488    2.3932 C   0  0  0  0  0  0  0  0  0  0  0  0
   -0.3203    1.9786    1.6110 C   0  0  0  0  0  0  0  0  0  0  0  0
   -0.6348    0.8601    0.8144 C   0  0  0  0  0  0  0  0  0  0  0  0
    2.0113   -0.1435   -1.3119 C   0  0  0  0  0  0  0  0  0  0  0  0
    1.2429   -0.1848   -3.9937 H   0  0  0  0  0  0  0  0  0  0  0  0
    2.8950   -0.3088   -4.6182 H   0  0  0  0  0  0  0  0  0  0  0  0
    2.3796    1.1734   -3.8000 H   0  0  0  0  0  0  0  0  0  0  0  0
    4.4038   -1.5714   -3.2554 H   0  0  0  0  0  0  0  0  0  0  0  0
    5.1049   -2.4417   -1.0815 H   0  0  0  0  0  0  0  0  0  0  0  0
    4.9661   -2.5372    1.2458 H   0  0  0  0  0  0  0  0  0  0  0  0
    3.2789   -2.8124    1.6911 H   0  0  0  0  0  0  0  0  0  0  0  0
    4.0946   -1.2748    2.1034 H   0  0  0  0  0  0  0  0  0  0  0  0
    1.9014    0.7554    1.4538 H   0  0  0  0  0  0  0  0  0  0  0  0
    1.8277   -0.8936    2.0359 H   0  0  0  0  0  0  0  0  0  0  0  0
   -2.4869   -1.2429    1.4784 H   0  0  0  0  0  0  0  0  0  0  0  0
   -2.8185   -3.5787    1.5122 H   0  0  0  0  0  0  0  0  0  0  0  0
   -1.5365   -3.8963    0.3408 H   0  0  0  0  0  0  0  0  0  0  0  0
   -4.3390   -2.8870   -0.2259 H   0  0  0  0  0  0  0  0  0  0  0  0
   -3.4893   -4.2440   -0.9863 H   0  0  0  0  0  0  0  0  0  0  0  0
   -3.5364   -1.8594   -2.2521 H   0  0  0  0  0  0  0  0  0  0  0  0
   -1.9541   -2.7081   -2.1465 H   0  0  0  0  0  0  0  0  0  0  0  0
   -3.1641    2.2861   -0.9575 H   0  0  0  0  0  0  0  0  0  0  0  0
   -2.1537    5.4328    0.2194 H   0  0  0  0  0  0  0  0  0  0  0  0
   -3.5164    4.5344   -0.4408 H   0  0  0  0  0  0  0  0  0  0  0  0
   -3.4176    4.7920    1.3079 H   0  0  0  0  0  0  0  0  0  0  0  0
   -0.2013    5.1615    1.7917 H   0  0  0  0  0  0  0  0  0  0  0  0
    0.1438    4.0540    3.1241 H   0  0  0  0  0  0  0  0  0  0  0  0
   -1.4823    4.7158    2.9544 H   0  0  0  0  0  0  0  0  0  0  0  0
    0.4455    1.9006    2.3786 H   0  0  0  0  0  0  0  0  0  0  0  0
    1.1415    0.5029   -1.4024 H   0  0  0  0  0  0  0  0  0  0  0  0
  1  2  1  0
  2  3  2  0
  3  4  1  0
  4  5  2  0
  5  6  1  0
  5  7  1  0
  7  8  1  0
  8  9  1  0
  9 10  1  0
 10 11  2  0
 10 12  1  0
 12 13  1  0
 13 14  1  0
 14 15  1  0
 15 16  1  0
 16 17  2  0
 17 18  1  0
 18 19  2  0
 19 20  1  0
 20 21  1  0
 20 22  2  0
 22 23  1  0
 22 24  1  0
 24 25  2  0
  7 26  2  0
 26  2  1  0
 25  9  1  0
 16 12  1  0
 25 18  1  0
  1 27  1  0
  1 28  1  0
  1 29  1  0
  3 30  1  0
  4 31  1  0
  6 32  1  0
  6 33  1  0
  6 34  1  0
  8 35  1  0
  8 36  1  0
 12 37  1  0
 13 38  1  0
 13 39  1  0
 14 40  1  0
 14 41  1  0
 15 42  1  0
 15 43  1  0
 19 44  1  0
 21 45  1  0
 21 46  1  0
 21 47  1  0
 23 48  1  0
 23 49  1  0
 23 50  1  0
 24 51  1  0
 26 52  1  0
M  END
>  <Unnamed: 0>  (182) 
1069

>  <ID>  (182) 
TRAIN_1069

>  <Canonical_Smiles>  (182) 
Cc1ccc(C)c(CN2C(=O)C3CCCC3=Nc4cc(C)c(C)cc24)c1

>  <Inhibition>  (182) 
71.9

>  <TDC_conf_true_inhibitor>  (182) 
1

>  <TDC_conf_non_inhibitor>  (182) 
0

>  <split>  (182) 
1

$$$$
182
     RDKit          3D

 27 29  0  0  0  0  0  0  0  0999 V2000
   -5.2465    0.4552   -0.9187 C   0  0  0  0  0  0  0  0  0  0  0  0
   -4.3983    0.0017    0.1372 O   0  0  0  0  0  0  0  0  0  0  0  0
   -3.0746   -0.0616   -0.2038 C   0  0  0  0  0  0  0  0  0  0  0  0
   -2.6307    0.2113   -1.3120 O   0  0  0  0  0  0  0  0  0  0  0  0
   -2.2732   -0.5450    0.9947 C   0  0  0  0  0  0  0  0  0  0  0  0
   -0.8448   -0.4792    0.7197 N   0  0  0  0  0  0  0  0  0  0  0  0
   -0.2296   -1.6652    0.3052 N   0  0  0  0  0  0  0  0  0  0  0  0
    1.0306   -1.6294   -0.0101 C   0  0  0  0  0  0  0  0  0  0  0  0
    1.7490   -0.4529    0.0710 N   0  0  0  0  0  0  0  0  0  0  0  0
    1.1973    0.7298    0.4791 C   0  0  0  0  0  0  0  0  0  0  0  0
    2.1581    1.7212    0.4636 C   0  0  0  0  0  0  0  0  0  0  0  0
    3.3520    1.0836    0.0190 C   0  0  0  0  0  0  0  0  0  0  0  0
    5.0062    1.4775   -0.3057 S   0  0  0  0  0  0  0  0  0  0  0  0
    5.3052   -0.1561   -0.7549 C   0  0  0  0  0  0  0  0  0  0  0  0
    4.2033   -0.9805   -0.6666 C   0  0  0  0  0  0  0  0  0  0  0  0
    3.0782   -0.2360   -0.2137 C   0  0  0  0  0  0  0  0  0  0  0  0
   -0.1985    0.7654    0.8330 C   0  0  0  0  0  0  0  0  0  0  0  0
   -0.7707    1.7856    1.2077 O   0  0  0  0  0  0  0  0  0  0  0  0
   -6.2720    0.4842   -0.5403 H   0  0  0  0  0  0  0  0  0  0  0  0
   -4.9643    1.4655   -1.2311 H   0  0  0  0  0  0  0  0  0  0  0  0
   -5.2090   -0.2384   -1.7645 H   0  0  0  0  0  0  0  0  0  0  0  0
   -2.5017    0.0923    1.8552 H   0  0  0  0  0  0  0  0  0  0  0  0
   -2.5489   -1.5804    1.2187 H   0  0  0  0  0  0  0  0  0  0  0  0
    1.5458   -2.5430   -0.3456 H   0  0  0  0  0  0  0  0  0  0  0  0
    2.0189    2.7603    0.7328 H   0  0  0  0  0  0  0  0  0  0  0  0
    6.3033   -0.4310   -1.0693 H   0  0  0  0  0  0  0  0  0  0  0  0
    4.2146   -2.0349   -0.9116 H   0  0  0  0  0  0  0  0  0  0  0  0
  1  2  1  0
  2  3  1  0
  3  4  2  0
  3  5  1  0
  5  6  1  0
  6  7  1  0
  7  8  2  0
  8  9  1  0
  9 10  1  0
 10 11  2  0
 11 12  1  0
 12 13  1  0
 13 14  1  0
 14 15  2  0
 15 16  1  0
 10 17  1  0
 17 18  2  0
 17  6  1  0
 16  9  1  0
 16 12  2  0
  1 19  1  0
  1 20  1  0
  1 21  1  0
  5 22  1  0
  5 23  1  0
  8 24  1  0
 11 25  1  0
 14 26  1  0
 15 27  1  0
M  END
>  <Unnamed: 0>  (183) 
1070

>  <ID>  (183) 
TRAIN_1070

>  <Canonical_Smiles>  (183) 
COC(=O)CN1N=Cn2c(cc3sccc23)C1=O

>  <Inhibition>  (183) 
9.68

>  <TDC_conf_true_inhibitor>  (183) 
0

>  <TDC_conf_non_inhibitor>  (183) 
1

>  <split>  (183) 
1

$$$$
183
     RDKit          3D

 52 55  0  0  0  0  0  0  0  0999 V2000
    5.9970    2.2904    1.9781 C   0  0  0  0  0  0  0  0  0  0  0  0
    5.5072    1.1014    2.5838 O   0  0  0  0  0  0  0  0  0  0  0  0
    4.2708    0.6576    2.0180 C   0  0  0  0  0  0  0  0  0  0  0  0
    4.5031   -0.1970    0.7758 C   0  0  0  0  0  0  0  0  0  0  0  0
    3.2559   -0.6484    0.1856 N   0  0  0  0  0  0  0  0  0  0  0  0
    2.6643   -1.8476    0.4676 C   0  0  0  0  0  0  0  0  0  0  0  0
    1.4809   -1.9315   -0.2404 C   0  0  0  0  0  0  0  0  0  0  0  0
    0.5096   -3.0714   -0.1336 C   0  0  0  0  0  0  0  0  0  0  0  0
   -0.4958   -3.1858   -1.2799 C   0  0  0  0  0  0  0  0  0  0  0  0
   -1.2997   -1.9744   -1.4325 N   0  0  0  0  0  0  0  0  0  0  0  0
   -0.8073   -1.0020   -2.4001 C   0  0  0  0  0  0  0  0  0  0  0  0
    0.4001   -0.2237   -1.9266 C   0  0  0  0  0  0  0  0  0  0  0  0
    0.6254    1.0480   -2.5002 C   0  0  0  0  0  0  0  0  0  0  0  0
    1.7412    1.8108   -2.1756 C   0  0  0  0  0  0  0  0  0  0  0  0
    2.6916    1.3315   -1.2786 C   0  0  0  0  0  0  0  0  0  0  0  0
    2.4880    0.0635   -0.7122 C   0  0  0  0  0  0  0  0  0  0  0  0
    1.3667   -0.7215   -1.0100 C   0  0  0  0  0  0  0  0  0  0  0  0
   -2.3354   -1.7637   -0.5244 C   0  0  0  0  0  0  0  0  0  0  0  0
   -2.7534   -2.6769    0.1834 O   0  0  0  0  0  0  0  0  0  0  0  0
   -2.8054   -0.4685   -0.4893 N   0  0  0  0  0  0  0  0  0  0  0  0
   -3.9678    0.0149    0.1616 C   0  0  0  0  0  0  0  0  0  0  0  0
   -4.9571   -0.8545    0.6415 C   0  0  0  0  0  0  0  0  0  0  0  0
   -6.1069   -0.3694    1.2709 C   0  0  0  0  0  0  0  0  0  0  0  0
   -6.2977    0.9974    1.4188 C   0  0  0  0  0  0  0  0  0  0  0  0
   -5.3382    1.8789    0.9298 C   0  0  0  0  0  0  0  0  0  0  0  0
   -4.1670    1.4049    0.2997 C   0  0  0  0  0  0  0  0  0  0  0  0
   -3.2084    2.4257   -0.2554 C   0  0  0  0  0  0  0  0  0  0  0  0
   -3.1585    3.5767    0.4731 F   0  0  0  0  0  0  0  0  0  0  0  0
   -3.5352    2.8046   -1.5233 F   0  0  0  0  0  0  0  0  0  0  0  0
   -1.9205    1.9831   -0.3318 F   0  0  0  0  0  0  0  0  0  0  0  0
    6.2179    2.1291    0.9200 H   0  0  0  0  0  0  0  0  0  0  0  0
    5.2746    3.1036    2.0920 H   0  0  0  0  0  0  0  0  0  0  0  0
    6.9223    2.5759    2.4852 H   0  0  0  0  0  0  0  0  0  0  0  0
    3.7714    0.0534    2.7846 H   0  0  0  0  0  0  0  0  0  0  0  0
    3.6134    1.5116    1.8143 H   0  0  0  0  0  0  0  0  0  0  0  0
    5.1033   -1.0796    1.0279 H   0  0  0  0  0  0  0  0  0  0  0  0
    5.0681    0.3422    0.0085 H   0  0  0  0  0  0  0  0  0  0  0  0
    3.1138   -2.5425    1.1667 H   0  0  0  0  0  0  0  0  0  0  0  0
   -0.0271   -2.9662    0.8179 H   0  0  0  0  0  0  0  0  0  0  0  0
    1.0713   -4.0120   -0.0746 H   0  0  0  0  0  0  0  0  0  0  0  0
   -1.1646   -4.0317   -1.0811 H   0  0  0  0  0  0  0  0  0  0  0  0
    0.0140   -3.4031   -2.2264 H   0  0  0  0  0  0  0  0  0  0  0  0
   -1.6187   -0.3127   -2.6608 H   0  0  0  0  0  0  0  0  0  0  0  0
   -0.5479   -1.5336   -3.3240 H   0  0  0  0  0  0  0  0  0  0  0  0
   -0.0846    1.4505   -3.2209 H   0  0  0  0  0  0  0  0  0  0  0  0
    1.8786    2.7878   -2.6335 H   0  0  0  0  0  0  0  0  0  0  0  0
    3.5629    1.9308   -1.0364 H   0  0  0  0  0  0  0  0  0  0  0  0
   -2.0953    0.2186   -0.7121 H   0  0  0  0  0  0  0  0  0  0  0  0
   -4.8666   -1.9317    0.5330 H   0  0  0  0  0  0  0  0  0  0  0  0
   -6.8538   -1.0684    1.6395 H   0  0  0  0  0  0  0  0  0  0  0  0
   -7.1935    1.3748    1.9048 H   0  0  0  0  0  0  0  0  0  0  0  0
   -5.5067    2.9504    1.0358 H   0  0  0  0  0  0  0  0  0  0  0  0
  1  2  1  0
  2  3  1  0
  3  4  1  0
  4  5  1  0
  5  6  1  0
  6  7  2  0
  7  8  1  0
  8  9  1  0
  9 10  1  0
 10 11  1  0
 11 12  1  0
 12 13  1  0
 13 14  2  0
 14 15  1  0
 15 16  2  0
 16 17  1  0
 10 18  1  0
 18 19  2  0
 18 20  1  0
 20 21  1  0
 21 22  2  0
 22 23  1  0
 23 24  2  0
 24 25  1  0
 25 26  2  0
 26 27  1  0
 27 28  1  0
 27 29  1  0
 27 30  1  0
 16  5  1  0
 17  7  1  0
 17 12  2  0
 26 21  1  0
  1 31  1  0
  1 32  1  0
  1 33  1  0
  3 34  1  0
  3 35  1  0
  4 36  1  0
  4 37  1  0
  6 38  1  0
  8 39  1  0
  8 40  1  0
  9 41  1  0
  9 42  1  0
 11 43  1  0
 11 44  1  0
 13 45  1  0
 14 46  1  0
 15 47  1  0
 20 48  1  0
 22 49  1  0
 23 50  1  0
 24 51  1  0
 25 52  1  0
M  END
>  <Unnamed: 0>  (184) 
1094

>  <ID>  (184) 
TRAIN_1094

>  <Canonical_Smiles>  (184) 
COCCn1cc2CCN(Cc3cccc1c23)C(=O)Nc4ccccc4C(F)(F)F

>  <Inhibition>  (184) 
76.4

>  <TDC_conf_true_inhibitor>  (184) 
1

>  <TDC_conf_non_inhibitor>  (184) 
0

>  <split>  (184) 
1

$$$$
184
     RDKit          3D

 58 62  0  0  0  0  0  0  0  0999 V2000
   -3.3621   -2.4738    1.8924 C   0  0  0  0  0  0  0  0  0  0  0  0
   -2.0305   -2.4056    1.1952 C   0  0  0  0  0  0  0  0  0  0  0  0
   -0.9768   -3.0806    1.6848 C   0  0  0  0  0  0  0  0  0  0  0  0
    0.2979   -3.0231    1.0301 C   0  0  0  0  0  0  0  0  0  0  0  0
    0.4970   -2.2745   -0.0588 C   0  0  0  0  0  0  0  0  0  0  0  0
    1.8366   -2.2203   -0.7262 C   0  0  0  0  0  0  0  0  0  0  0  0
    2.6050   -3.5025   -0.4007 C   0  0  0  0  0  0  0  0  0  0  0  0
    2.5422   -3.8645    1.0612 C   0  0  0  0  0  0  0  0  0  0  0  0
    3.5023   -4.3413    1.6590 O   0  0  0  0  0  0  0  0  0  0  0  0
    1.3220   -3.7419    1.6652 O   0  0  0  0  0  0  0  0  0  0  0  0
    2.6582   -0.9861   -0.3996 C   0  0  0  0  0  0  0  0  0  0  0  0
    2.5929   -0.3044    0.8182 C   0  0  0  0  0  0  0  0  0  0  0  0
    3.3972    0.8235    1.0517 C   0  0  0  0  0  0  0  0  0  0  0  0
    3.3292    1.5183    2.2703 C   0  0  0  0  0  0  0  0  0  0  0  0
    4.1297    2.6339    2.4909 C   0  0  0  0  0  0  0  0  0  0  0  0
    5.0012    3.0608    1.4961 C   0  0  0  0  0  0  0  0  0  0  0  0
    5.0772    2.3735    0.2726 C   0  0  0  0  0  0  0  0  0  0  0  0
    6.0348    2.8534   -0.7854 C   0  0  0  0  0  0  0  0  0  0  0  0
    4.2808    1.2458    0.0331 C   0  0  0  0  0  0  0  0  0  0  0  0
    4.3656    0.5842   -1.1375 N   0  0  0  0  0  0  0  0  0  0  0  0
    3.5719   -0.4848   -1.3113 C   0  0  0  0  0  0  0  0  0  0  0  0
    3.7692   -1.0895   -2.5097 O   0  0  0  0  0  0  0  0  0  0  0  0
   -0.6491   -1.5174   -0.6323 C   0  0  0  0  0  0  0  0  0  0  0  0
   -0.4818   -0.8276   -1.6355 O   0  0  0  0  0  0  0  0  0  0  0  0
   -1.8791   -1.6398    0.0331 N   0  0  0  0  0  0  0  0  0  0  0  0
   -2.9915   -0.8563   -0.5198 C   0  0  0  0  0  0  0  0  0  0  0  0
   -2.9778    0.5917   -0.0154 C   0  0  0  0  0  0  0  0  0  0  0  0
   -4.1255    1.3886   -0.5832 C   0  0  0  0  0  0  0  0  0  0  0  0
   -5.3403    1.4828    0.1098 C   0  0  0  0  0  0  0  0  0  0  0  0
   -6.4060    2.2019   -0.4329 C   0  0  0  0  0  0  0  0  0  0  0  0
   -6.2607    2.8241   -1.6670 C   0  0  0  0  0  0  0  0  0  0  0  0
   -7.3281    3.5150   -2.1596 O   0  0  0  0  0  0  0  0  0  0  0  0
   -5.0648    2.7391   -2.3722 C   0  0  0  0  0  0  0  0  0  0  0  0
   -3.9984    2.0188   -1.8299 C   0  0  0  0  0  0  0  0  0  0  0  0
   -3.7167   -1.4744    2.1619 H   0  0  0  0  0  0  0  0  0  0  0  0
   -4.1079   -2.9601    1.2555 H   0  0  0  0  0  0  0  0  0  0  0  0
   -3.3065   -3.0532    2.8209 H   0  0  0  0  0  0  0  0  0  0  0  0
   -1.0561   -3.6845    2.5843 H   0  0  0  0  0  0  0  0  0  0  0  0
    1.6588   -2.2296   -1.8105 H   0  0  0  0  0  0  0  0  0  0  0  0
    2.1842   -4.3517   -0.9548 H   0  0  0  0  0  0  0  0  0  0  0  0
    3.6584   -3.4172   -0.6931 H   0  0  0  0  0  0  0  0  0  0  0  0
    1.9181   -0.6368    1.6029 H   0  0  0  0  0  0  0  0  0  0  0  0
    2.6518    1.1927    3.0564 H   0  0  0  0  0  0  0  0  0  0  0  0
    4.0755    3.1679    3.4360 H   0  0  0  0  0  0  0  0  0  0  0  0
    5.6254    3.9335    1.6758 H   0  0  0  0  0  0  0  0  0  0  0  0
    5.4971    3.0809   -1.7117 H   0  0  0  0  0  0  0  0  0  0  0  0
    6.7941    2.0897   -0.9830 H   0  0  0  0  0  0  0  0  0  0  0  0
    6.5536    3.7663   -0.4737 H   0  0  0  0  0  0  0  0  0  0  0  0
    4.4364   -0.4858   -2.8856 H   0  0  0  0  0  0  0  0  0  0  0  0
   -2.9095   -0.8629   -1.6149 H   0  0  0  0  0  0  0  0  0  0  0  0
   -3.9477   -1.3436   -0.3024 H   0  0  0  0  0  0  0  0  0  0  0  0
   -2.0314    1.0819   -0.2773 H   0  0  0  0  0  0  0  0  0  0  0  0
   -3.0221    0.6146    1.0807 H   0  0  0  0  0  0  0  0  0  0  0  0
   -5.4656    0.9998    1.0757 H   0  0  0  0  0  0  0  0  0  0  0  0
   -7.3468    2.2774    0.1050 H   0  0  0  0  0  0  0  0  0  0  0  0
   -7.0741    3.9047   -3.0121 H   0  0  0  0  0  0  0  0  0  0  0  0
   -4.9430    3.2195   -3.3376 H   0  0  0  0  0  0  0  0  0  0  0  0
   -3.0645    1.9495   -2.3856 H   0  0  0  0  0  0  0  0  0  0  0  0
  1  2  1  0
  2  3  2  0
  3  4  1  0
  4  5  2  0
  5  6  1  0
  6  7  1  0
  7  8  1  0
  8  9  2  0
  8 10  1  0
  6 11  1  0
 11 12  2  0
 12 13  1  0
 13 14  2  0
 14 15  1  0
 15 16  2  0
 16 17  1  0
 17 18  1  0
 17 19  2  0
 19 20  1  0
 20 21  2  0
 21 22  1  0
  5 23  1  0
 23 24  2  0
 23 25  1  0
 25 26  1  0
 26 27  1  0
 27 28  1  0
 28 29  2  0
 29 30  1  0
 30 31  2  0
 31 32  1  0
 31 33  1  0
 33 34  2  0
 25  2  1  0
 10  4  1  0
 21 11  1  0
 19 13  1  0
 34 28  1  0
  1 35  1  0
  1 36  1  0
  1 37  1  0
  3 38  1  0
  6 39  1  0
  7 40  1  0
  7 41  1  0
 12 42  1  0
 14 43  1  0
 15 44  1  0
 16 45  1  0
 18 46  1  0
 18 47  1  0
 18 48  1  0
 22 49  1  0
 26 50  1  0
 26 51  1  0
 27 52  1  0
 27 53  1  0
 29 54  1  0
 30 55  1  0
 32 56  1  0
 33 57  1  0
 34 58  1  0
M  END
>  <Unnamed: 0>  (185) 
1112

>  <ID>  (185) 
TRAIN_1112

>  <Canonical_Smiles>  (185) 
CC1=CC2=C(C(CC(=O)O2)c3cc4cccc(C)c4nc3O)C(=O)N1CCc5ccc(O)cc5

>  <Inhibition>  (185) 
38.9

>  <TDC_conf_true_inhibitor>  (185) 
1

>  <TDC_conf_non_inhibitor>  (185) 
0

>  <split>  (185) 
1

$$$$
185
     RDKit          3D

 82 85  0  0  0  0  0  0  0  0999 V2000
   -9.1645    1.2831   -2.5114 C   0  0  0  0  0  0  0  0  0  0  0  0
   -8.0862    2.0782   -1.7977 C   0  0  0  0  0  0  0  0  0  0  0  0
   -7.0370    1.2049   -1.3469 O   0  0  0  0  0  0  0  0  0  0  0  0
   -7.2352    0.6152   -0.1358 C   0  0  0  0  0  0  0  0  0  0  0  0
   -8.2250    0.7679    0.5709 O   0  0  0  0  0  0  0  0  0  0  0  0
   -6.0337   -0.2050    0.2963 C   0  0  0  0  0  0  0  0  0  0  0  0
   -5.3032   -0.8926   -0.8674 C   0  0  0  0  0  0  0  0  0  0  0  0
   -4.0576   -0.1183   -1.2913 C   0  0  0  0  0  0  0  0  0  0  0  0
   -3.1164    0.0261   -0.1762 N   0  0  0  0  0  0  0  0  0  0  0  0
   -3.6877    0.1646    1.1635 C   0  0  0  0  0  0  0  0  0  0  0  0
   -5.1126    0.6940    1.1291 C   0  0  0  0  0  0  0  0  0  0  0  0
   -1.7514   -0.1215   -0.4389 C   0  0  0  0  0  0  0  0  0  0  0  0
   -1.3359   -0.3106   -1.5843 O   0  0  0  0  0  0  0  0  0  0  0  0
   -0.7803   -0.0318    0.7593 C   0  0  0  0  0  0  0  0  0  0  0  0
   -0.4879    1.4177    1.0686 C   0  0  0  0  0  0  0  0  0  0  0  0
    0.6723    1.7398    0.2896 O   0  0  0  0  0  0  0  0  0  0  0  0
    1.4675    0.5296    0.1498 C   0  0  0  0  0  0  0  0  0  0  0  0
    1.9453    0.4751   -1.3082 C   0  0  0  0  0  0  0  0  0  0  0  0
    3.0169    1.5275   -1.5605 C   0  0  0  0  0  0  0  0  0  0  0  0
    4.1156    1.4805   -0.5973 N   0  0  0  0  0  0  0  0  0  0  0  0
    3.9837    0.4944    0.4756 C   0  0  0  0  0  0  0  0  0  0  0  0
    2.6307    0.6457    1.1617 C   0  0  0  0  0  0  0  0  0  0  0  0
    5.0817    2.4726   -0.7056 C   0  0  0  0  0  0  0  0  0  0  0  0
    5.0463    3.3063   -1.6171 O   0  0  0  0  0  0  0  0  0  0  0  0
    6.2185    2.5374    0.3056 C   0  0  0  0  0  0  0  0  0  0  0  0
    7.5211    1.8256   -0.1261 C   0  0  0  0  0  0  0  0  0  0  0  0
    8.0839    2.4477   -1.4181 C   0  0  0  0  0  0  0  0  0  0  0  0
    7.3158    0.3187   -0.3488 C   0  0  0  0  0  0  0  0  0  0  0  0
    8.5595    2.0165    0.9967 C   0  0  0  0  0  0  0  0  0  0  0  0
    0.5466   -0.5534    0.4698 N   0  0  0  0  0  0  0  0  0  0  0  0
    0.9436   -1.8739    0.5355 C   0  0  0  0  0  0  0  0  0  0  0  0
    2.1057   -2.2483    0.4160 O   0  0  0  0  0  0  0  0  0  0  0  0
   -0.0874   -2.8871    0.8357 C   0  0  0  0  0  0  0  0  0  0  0  0
   -0.9942   -3.2800   -0.1498 C   0  0  0  0  0  0  0  0  0  0  0  0
   -1.9875   -4.2042    0.1656 C   0  0  0  0  0  0  0  0  0  0  0  0
   -2.0519   -4.7527    1.4511 C   0  0  0  0  0  0  0  0  0  0  0  0
   -1.1057   -4.4070    2.4241 C   0  0  0  0  0  0  0  0  0  0  0  0
   -1.1591   -5.0217    3.7910 C   0  0  0  0  0  0  0  0  0  0  0  0
   -0.1254   -3.4562    2.1120 C   0  0  0  0  0  0  0  0  0  0  0  0
   -9.5920    0.5109   -1.8642 H   0  0  0  0  0  0  0  0  0  0  0  0
   -8.7390    0.7690   -3.3785 H   0  0  0  0  0  0  0  0  0  0  0  0
   -9.9662    1.9400   -2.8564 H   0  0  0  0  0  0  0  0  0  0  0  0
   -7.6322    2.7919   -2.4938 H   0  0  0  0  0  0  0  0  0  0  0  0
   -8.5008    2.6612   -0.9657 H   0  0  0  0  0  0  0  0  0  0  0  0
   -6.4342   -1.0072    0.9330 H   0  0  0  0  0  0  0  0  0  0  0  0
   -4.9910   -1.8943   -0.5388 H   0  0  0  0  0  0  0  0  0  0  0  0
   -5.9644   -1.0438   -1.7288 H   0  0  0  0  0  0  0  0  0  0  0  0
   -4.3127    0.8927   -1.6298 H   0  0  0  0  0  0  0  0  0  0  0  0
   -3.5852   -0.6317   -2.1347 H   0  0  0  0  0  0  0  0  0  0  0  0
   -3.0677    0.8365    1.7624 H   0  0  0  0  0  0  0  0  0  0  0  0
   -3.6551   -0.8241    1.6369 H   0  0  0  0  0  0  0  0  0  0  0  0
   -5.0998    1.7132    0.7178 H   0  0  0  0  0  0  0  0  0  0  0  0
   -5.5028    0.7819    2.1512 H   0  0  0  0  0  0  0  0  0  0  0  0
   -1.2099   -0.5615    1.6127 H   0  0  0  0  0  0  0  0  0  0  0  0
   -0.2277    1.5477    2.1254 H   0  0  0  0  0  0  0  0  0  0  0  0
   -1.2913    2.1160    0.8166 H   0  0  0  0  0  0  0  0  0  0  0  0
    1.1113    0.6558   -1.9938 H   0  0  0  0  0  0  0  0  0  0  0  0
    2.3444   -0.5157   -1.5544 H   0  0  0  0  0  0  0  0  0  0  0  0
    3.4384    1.4037   -2.5656 H   0  0  0  0  0  0  0  0  0  0  0  0
    2.5753    2.5312   -1.5174 H   0  0  0  0  0  0  0  0  0  0  0  0
    4.7736    0.5845    1.2197 H   0  0  0  0  0  0  0  0  0  0  0  0
    4.0933   -0.4992    0.0264 H   0  0  0  0  0  0  0  0  0  0  0  0
    2.5511   -0.1038    1.9585 H   0  0  0  0  0  0  0  0  0  0  0  0
    2.6009    1.6233    1.6608 H   0  0  0  0  0  0  0  0  0  0  0  0
    6.4266    3.6073    0.4553 H   0  0  0  0  0  0  0  0  0  0  0  0
    5.8868    2.2004    1.2912 H   0  0  0  0  0  0  0  0  0  0  0  0
    7.4439    2.2336   -2.2837 H   0  0  0  0  0  0  0  0  0  0  0  0
    9.0829    2.0512   -1.6441 H   0  0  0  0  0  0  0  0  0  0  0  0
    8.1733    3.5378   -1.3276 H   0  0  0  0  0  0  0  0  0  0  0  0
    6.9323   -0.1673    0.5547 H   0  0  0  0  0  0  0  0  0  0  0  0
    8.2635   -0.1709   -0.6088 H   0  0  0  0  0  0  0  0  0  0  0  0
    6.6117    0.1211   -1.1634 H   0  0  0  0  0  0  0  0  0  0  0  0
    8.2152    1.5624    1.9330 H   0  0  0  0  0  0  0  0  0  0  0  0
    8.7454    3.0784    1.1880 H   0  0  0  0  0  0  0  0  0  0  0  0
    9.5201    1.5545    0.7368 H   0  0  0  0  0  0  0  0  0  0  0  0
   -0.9199   -2.8767   -1.1589 H   0  0  0  0  0  0  0  0  0  0  0  0
   -2.7032   -4.5121   -0.5932 H   0  0  0  0  0  0  0  0  0  0  0  0
   -2.8292   -5.4827    1.6750 H   0  0  0  0  0  0  0  0  0  0  0  0
   -1.7585   -4.3974    4.4621 H   0  0  0  0  0  0  0  0  0  0  0  0
   -0.1530   -5.1306    4.2079 H   0  0  0  0  0  0  0  0  0  0  0  0
   -1.6039   -6.0218    3.7528 H   0  0  0  0  0  0  0  0  0  0  0  0
    0.6208   -3.1708    2.8487 H   0  0  0  0  0  0  0  0  0  0  0  0
  1  2  1  0
  2  3  1  0
  3  4  1  0
  4  5  2  0
  4  6  1  0
  6  7  1  0
  7  8  1  0
  8  9  1  0
  9 10  1  0
 10 11  1  0
  9 12  1  0
 12 13  2  0
 12 14  1  0
 14 15  1  0
 15 16  1  0
 16 17  1  0
 17 18  1  0
 18 19  1  0
 19 20  1  0
 20 21  1  0
 21 22  1  0
 20 23  1  0
 23 24  2  0
 23 25  1  0
 25 26  1  0
 26 27  1  0
 26 28  1  0
 26 29  1  0
 17 30  1  0
 30 31  1  0
 31 32  2  0
 31 33  1  0
 33 34  2  0
 34 35  1  0
 35 36  2  0
 36 37  1  0
 37 38  1  0
 37 39  2  0
 11  6  1  0
 30 14  1  0
 22 17  1  0
 39 33  1  0
  1 40  1  0
  1 41  1  0
  1 42  1  0
  2 43  1  0
  2 44  1  0
  6 45  1  0
  7 46  1  0
  7 47  1  0
  8 48  1  0
  8 49  1  0
 10 50  1  0
 10 51  1  0
 11 52  1  0
 11 53  1  0
 14 54  1  0
 15 55  1  0
 15 56  1  0
 18 57  1  0
 18 58  1  0
 19 59  1  0
 19 60  1  0
 21 61  1  0
 21 62  1  0
 22 63  1  0
 22 64  1  0
 25 65  1  0
 25 66  1  0
 27 67  1  0
 27 68  1  0
 27 69  1  0
 28 70  1  0
 28 71  1  0
 28 72  1  0
 29 73  1  0
 29 74  1  0
 29 75  1  0
 34 76  1  0
 35 77  1  0
 36 78  1  0
 38 79  1  0
 38 80  1  0
 38 81  1  0
 39 82  1  0
M  END
>  <Unnamed: 0>  (186) 
1116

>  <ID>  (186) 
TRAIN_1116

>  <Canonical_Smiles>  (186) 
CCOC(=O)C1CCN(CC1)C(=O)C2COC3(CCN(CC3)C(=O)CC(C)(C)C)N2C(=O)c4cccc(C)c4

>  <Inhibition>  (186) 
42.1

>  <TDC_conf_true_inhibitor>  (186) 
1

>  <TDC_conf_non_inhibitor>  (186) 
0

>  <split>  (186) 
1

$$$$
186
     RDKit          3D

 36 39  0  0  0  0  0  0  0  0999 V2000
    2.1562    0.5318    2.9728 O   0  0  0  0  0  0  0  0  0  0  0  0
    3.4740    0.3461    2.4689 C   0  0  0  0  0  0  0  0  0  0  0  0
    3.3990   -0.6348    1.3627 C   0  0  0  0  0  0  0  0  0  0  0  0
    2.4898   -0.3697    0.3821 O   0  0  0  0  0  0  0  0  0  0  0  0
    2.5392   -1.3902   -0.5329 C   0  0  0  0  0  0  0  0  0  0  0  0
    3.5274   -2.2790   -0.1412 C   0  0  0  0  0  0  0  0  0  0  0  0
    4.0667   -1.8042    1.0789 C   0  0  0  0  0  0  0  0  0  0  0  0
    1.7231   -1.4424   -1.7070 C   0  0  0  0  0  0  0  0  0  0  0  0
    2.1263   -2.0155   -2.8272 N   0  0  0  0  0  0  0  0  0  0  0  0
    1.1851   -1.6320   -3.7271 C   0  0  0  0  0  0  0  0  0  0  0  0
    0.2009   -0.8780   -3.2457 N   0  0  0  0  0  0  0  0  0  0  0  0
    0.4835   -0.8446   -1.9094 N   0  0  0  0  0  0  0  0  0  0  0  0
   -0.4711   -0.3044   -0.9996 C   0  0  0  0  0  0  0  0  0  0  0  0
   -0.4633   -0.6407    0.3698 C   0  0  0  0  0  0  0  0  0  0  0  0
   -1.4057   -0.0955    1.2499 C   0  0  0  0  0  0  0  0  0  0  0  0
   -2.3678    0.7576    0.7419 C   0  0  0  0  0  0  0  0  0  0  0  0
   -3.4480    1.4792    1.4851 C   0  0  0  0  0  0  0  0  0  0  0  0
   -4.3874    1.8739    0.3363 C   0  0  0  0  0  0  0  0  0  0  0  0
   -3.5109    2.0355   -0.9141 C   0  0  0  0  0  0  0  0  0  0  0  0
   -2.4033    1.0730   -0.6183 C   0  0  0  0  0  0  0  0  0  0  0  0
   -1.4692    0.5514   -1.4995 C   0  0  0  0  0  0  0  0  0  0  0  0
    1.6005    0.7342    2.1974 H   0  0  0  0  0  0  0  0  0  0  0  0
    3.8590    1.3079    2.1180 H   0  0  0  0  0  0  0  0  0  0  0  0
    4.1086   -0.0144    3.2832 H   0  0  0  0  0  0  0  0  0  0  0  0
    3.8133   -3.1714   -0.6826 H   0  0  0  0  0  0  0  0  0  0  0  0
    4.8476   -2.2574    1.6741 H   0  0  0  0  0  0  0  0  0  0  0  0
    1.2222   -1.9021   -4.7751 H   0  0  0  0  0  0  0  0  0  0  0  0
    0.2425   -1.3554    0.7831 H   0  0  0  0  0  0  0  0  0  0  0  0
   -1.3854   -0.3508    2.3056 H   0  0  0  0  0  0  0  0  0  0  0  0
   -3.0367    2.3637    1.9823 H   0  0  0  0  0  0  0  0  0  0  0  0
   -3.9551    0.8403    2.2134 H   0  0  0  0  0  0  0  0  0  0  0  0
   -4.9663    2.7753    0.5605 H   0  0  0  0  0  0  0  0  0  0  0  0
   -5.1081    1.0615    0.1668 H   0  0  0  0  0  0  0  0  0  0  0  0
   -3.1147    3.0532   -0.9912 H   0  0  0  0  0  0  0  0  0  0  0  0
   -4.0606    1.7760   -1.8230 H   0  0  0  0  0  0  0  0  0  0  0  0
   -1.5116    0.8218   -2.5519 H   0  0  0  0  0  0  0  0  0  0  0  0
  1  2  1  0
  2  3  1  0
  3  4  1  0
  4  5  1  0
  5  6  2  0
  6  7  1  0
  5  8  1  0
  8  9  2  0
  9 10  1  0
 10 11  2  0
 11 12  1  0
 12 13  1  0
 13 14  2  0
 14 15  1  0
 15 16  2  0
 16 17  1  0
 17 18  1  0
 18 19  1  0
 19 20  1  0
 20 21  2  0
  7  3  2  0
 12  8  1  0
 21 13  1  0
 20 16  1  0
  1 22  1  0
  2 23  1  0
  2 24  1  0
  6 25  1  0
  7 26  1  0
 10 27  1  0
 14 28  1  0
 15 29  1  0
 17 30  1  0
 17 31  1  0
 18 32  1  0
 18 33  1  0
 19 34  1  0
 19 35  1  0
 21 36  1  0
M  END
>  <Unnamed: 0>  (187) 
1126

>  <ID>  (187) 
TRAIN_1126

>  <Canonical_Smiles>  (187) 
OCc1oc(cc1)c2ncnn2c3ccc4CCCc4c3

>  <Inhibition>  (187) 
55.2

>  <TDC_conf_true_inhibitor>  (187) 
1

>  <TDC_conf_non_inhibitor>  (187) 
0

>  <split>  (187) 
1

$$$$
187
     RDKit          3D

 44 45  0  0  0  0  0  0  0  0999 V2000
   -0.6396    1.2709    1.9608 C   0  0  0  0  0  0  0  0  0  0  0  0
   -1.3838    1.3717    0.6268 C   0  0  0  0  0  0  0  0  0  0  0  0
   -0.4672    1.1800   -0.5826 C   0  0  0  0  0  0  0  0  0  0  0  0
   -0.3288    2.1382   -1.3567 O   0  0  0  0  0  0  0  0  0  0  0  0
    0.2046   -0.0132   -0.8150 N   0  0  0  0  0  0  0  0  0  0  0  0
    0.1758   -1.1850    0.0495 C   0  0  0  0  0  0  0  0  0  0  0  0
    1.2034   -0.0316   -1.8859 C   0  0  0  0  0  0  0  0  0  0  0  0
    2.5471    0.2910   -1.3265 C   0  0  0  0  0  0  0  0  0  0  0  0
    3.0563    1.5853   -1.0704 C   0  0  0  0  0  0  0  0  0  0  0  0
    4.2887    1.5632   -0.5640 N   0  0  0  0  0  0  0  0  0  0  0  0
    4.5856    0.2548   -0.4979 N   0  0  0  0  0  0  0  0  0  0  0  0
    5.8736   -0.1510    0.0158 C   0  0  0  0  0  0  0  0  0  0  0  0
    3.5752   -0.5606   -0.9471 C   0  0  0  0  0  0  0  0  0  0  0  0
    3.6846   -2.0411   -0.9660 C   0  0  0  0  0  0  0  0  0  0  0  0
   -2.6235    0.6018    0.5167 N   0  0  0  0  0  0  0  0  0  0  0  0
   -2.9352   -0.3074    1.4689 N   0  0  0  0  0  0  0  0  0  0  0  0
   -4.1311   -0.8063    1.0949 C   0  0  0  0  0  0  0  0  0  0  0  0
   -4.5850   -0.1792   -0.0875 C   0  0  0  0  0  0  0  0  0  0  0  0
   -6.0425   -0.4964   -0.8980 Cl  0  0  0  0  0  0  0  0  0  0  0  0
   -3.6131    0.7360   -0.4330 C   0  0  0  0  0  0  0  0  0  0  0  0
   -3.5491    1.6931   -1.5694 C   0  0  0  0  0  0  0  0  0  0  0  0
   -4.8486   -1.8769    1.8626 C   0  0  0  0  0  0  0  0  0  0  0  0
   -5.1883   -2.9305    1.0691 F   0  0  0  0  0  0  0  0  0  0  0  0
   -6.0042   -1.4192    2.4165 F   0  0  0  0  0  0  0  0  0  0  0  0
   -4.1104   -2.3952    2.8830 F   0  0  0  0  0  0  0  0  0  0  0  0
    0.2928    1.8440    1.9269 H   0  0  0  0  0  0  0  0  0  0  0  0
   -1.2541    1.6779    2.7719 H   0  0  0  0  0  0  0  0  0  0  0  0
   -0.3860    0.2446    2.2365 H   0  0  0  0  0  0  0  0  0  0  0  0
   -1.7253    2.4170    0.5742 H   0  0  0  0  0  0  0  0  0  0  0  0
    0.2951   -2.0890   -0.5555 H   0  0  0  0  0  0  0  0  0  0  0  0
    0.9966   -1.1181    0.7692 H   0  0  0  0  0  0  0  0  0  0  0  0
   -0.7640   -1.2723    0.5855 H   0  0  0  0  0  0  0  0  0  0  0  0
    1.1905   -1.0176   -2.3635 H   0  0  0  0  0  0  0  0  0  0  0  0
    0.9457    0.6923   -2.6665 H   0  0  0  0  0  0  0  0  0  0  0  0
    2.5684    2.5397   -1.2325 H   0  0  0  0  0  0  0  0  0  0  0  0
    6.3707   -0.7646   -0.7397 H   0  0  0  0  0  0  0  0  0  0  0  0
    6.4793    0.7347    0.2275 H   0  0  0  0  0  0  0  0  0  0  0  0
    5.7132   -0.7206    0.9352 H   0  0  0  0  0  0  0  0  0  0  0  0
    3.7721   -2.4319    0.0530 H   0  0  0  0  0  0  0  0  0  0  0  0
    4.5623   -2.3597   -1.5373 H   0  0  0  0  0  0  0  0  0  0  0  0
    2.8070   -2.5008   -1.4288 H   0  0  0  0  0  0  0  0  0  0  0  0
   -2.8626    1.3278   -2.3388 H   0  0  0  0  0  0  0  0  0  0  0  0
   -4.5296    1.8221   -2.0363 H   0  0  0  0  0  0  0  0  0  0  0  0
   -3.2172    2.6822   -1.2401 H   0  0  0  0  0  0  0  0  0  0  0  0
  1  2  1  0
  2  3  1  0
  3  4  2  0
  3  5  1  0
  5  6  1  0
  5  7  1  0
  7  8  1  0
  8  9  1  0
  9 10  2  0
 10 11  1  0
 11 12  1  0
 11 13  1  0
 13 14  1  0
  2 15  1  0
 15 16  1  0
 16 17  2  0
 17 18  1  0
 18 19  1  0
 18 20  2  0
 20 21  1  0
 17 22  1  0
 22 23  1  0
 22 24  1  0
 22 25  1  0
 13  8  2  0
 20 15  1  0
  1 26  1  0
  1 27  1  0
  1 28  1  0
  2 29  1  0
  6 30  1  0
  6 31  1  0
  6 32  1  0
  7 33  1  0
  7 34  1  0
  9 35  1  0
 12 36  1  0
 12 37  1  0
 12 38  1  0
 14 39  1  0
 14 40  1  0
 14 41  1  0
 21 42  1  0
 21 43  1  0
 21 44  1  0
M  END
>  <Unnamed: 0>  (188) 
1127

>  <ID>  (188) 
TRAIN_1127

>  <Canonical_Smiles>  (188) 
CC(C(=O)N(C)Cc1cnn(C)c1C)n2nc(c(Cl)c2C)C(F)(F)F

>  <Inhibition>  (188) 
67.8

>  <TDC_conf_true_inhibitor>  (188) 
1

>  <TDC_conf_non_inhibitor>  (188) 
0

>  <split>  (188) 
1

$$$$
188
     RDKit          3D

 36 37  0  0  0  0  0  0  0  0999 V2000
   -5.1602    1.5301   -0.2134 C   0  0  0  0  0  0  0  0  0  0  0  0
   -3.8991    1.8629    0.5667 C   0  0  0  0  0  0  0  0  0  0  0  0
   -2.9148    0.7277    0.5204 C   0  0  0  0  0  0  0  0  0  0  0  0
   -2.0289    0.7058   -0.4979 N   0  0  0  0  0  0  0  0  0  0  0  0
   -1.1764   -0.3425   -0.5285 C   0  0  0  0  0  0  0  0  0  0  0  0
   -1.1579   -1.3332    0.4252 C   0  0  0  0  0  0  0  0  0  0  0  0
   -2.1222   -1.2408    1.4009 C   0  0  0  0  0  0  0  0  0  0  0  0
   -3.0027   -0.2173    1.4791 N   0  0  0  0  0  0  0  0  0  0  0  0
   -0.2335   -2.4700    0.3842 C   0  0  0  0  0  0  0  0  0  0  0  0
   -0.7295   -3.5916    0.4594 O   0  0  0  0  0  0  0  0  0  0  0  0
    1.1398   -2.2410    0.2566 N   0  0  0  0  0  0  0  0  0  0  0  0
    2.0005   -3.4109    0.1499 C   0  0  0  0  0  0  0  0  0  0  0  0
    1.7975   -0.9774    0.6270 C   0  0  0  0  0  0  0  0  0  0  0  0
    2.5195   -0.3168   -0.5530 C   0  0  0  0  0  0  0  0  0  0  0  0
    2.9811    1.0596   -0.2264 C   0  0  0  0  0  0  0  0  0  0  0  0
    4.2455    1.4601    0.2615 C   0  0  0  0  0  0  0  0  0  0  0  0
    4.3246    2.7769    0.4596 N   0  0  0  0  0  0  0  0  0  0  0  0
    3.1164    3.2295    0.0896 N   0  0  0  0  0  0  0  0  0  0  0  0
    2.2740    2.2396   -0.3259 C   0  0  0  0  0  0  0  0  0  0  0  0
   -5.6574    0.6441    0.1959 H   0  0  0  0  0  0  0  0  0  0  0  0
   -5.8652    2.3662   -0.1695 H   0  0  0  0  0  0  0  0  0  0  0  0
   -4.9340    1.3309   -1.2665 H   0  0  0  0  0  0  0  0  0  0  0  0
   -4.1544    2.0816    1.6098 H   0  0  0  0  0  0  0  0  0  0  0  0
   -3.4339    2.7651    0.1535 H   0  0  0  0  0  0  0  0  0  0  0  0
   -0.5019   -0.3583   -1.3780 H   0  0  0  0  0  0  0  0  0  0  0  0
   -2.2207   -1.9996    2.1725 H   0  0  0  0  0  0  0  0  0  0  0  0
    1.4679   -4.2555   -0.2966 H   0  0  0  0  0  0  0  0  0  0  0  0
    2.8655   -3.1768   -0.4756 H   0  0  0  0  0  0  0  0  0  0  0  0
    2.3349   -3.6923    1.1529 H   0  0  0  0  0  0  0  0  0  0  0  0
    2.5100   -1.1973    1.4327 H   0  0  0  0  0  0  0  0  0  0  0  0
    1.0690   -0.2872    1.0637 H   0  0  0  0  0  0  0  0  0  0  0  0
    1.8572   -0.2767   -1.4259 H   0  0  0  0  0  0  0  0  0  0  0  0
    3.3783   -0.9282   -0.8553 H   0  0  0  0  0  0  0  0  0  0  0  0
    5.1099    0.8464    0.4827 H   0  0  0  0  0  0  0  0  0  0  0  0
    2.9356    4.2265    0.1488 H   0  0  0  0  0  0  0  0  0  0  0  0
    1.2655    2.4604   -0.6484 H   0  0  0  0  0  0  0  0  0  0  0  0
  1  2  1  0
  2  3  1  0
  3  4  2  0
  4  5  1  0
  5  6  2  0
  6  7  1  0
  7  8  2  0
  6  9  1  0
  9 10  2  0
  9 11  1  0
 11 12  1  0
 11 13  1  0
 13 14  1  0
 14 15  1  0
 15 16  1  0
 16 17  2  0
 17 18  1  0
 18 19  1  0
  8  3  1  0
 19 15  2  0
  1 20  1  0
  1 21  1  0
  1 22  1  0
  2 23  1  0
  2 24  1  0
  5 25  1  0
  7 26  1  0
 12 27  1  0
 12 28  1  0
 12 29  1  0
 13 30  1  0
 13 31  1  0
 14 32  1  0
 14 33  1  0
 16 34  1  0
 18 35  1  0
 19 36  1  0
M  END
>  <Unnamed: 0>  (189) 
1136

>  <ID>  (189) 
TRAIN_1136

>  <Canonical_Smiles>  (189) 
CCc1ncc(cn1)C(=O)N(C)CCc2cn[nH]c2

>  <Inhibition>  (189) 
11.1

>  <TDC_conf_true_inhibitor>  (189) 
0

>  <TDC_conf_non_inhibitor>  (189) 
1

>  <split>  (189) 
1

$$$$
189
     RDKit          3D

 54 57  0  0  0  0  0  0  0  0999 V2000
    0.3292    0.9847    0.3475 O   0  0  0  0  0  0  0  0  0  0  0  0
    0.5240   -0.2104    0.5488 C   0  0  0  0  0  0  0  0  0  0  0  0
    1.8054   -0.7337    1.1764 C   0  0  0  0  0  0  0  0  0  0  0  0
    2.7826   -1.0967    0.1197 C   0  0  0  0  0  0  0  0  0  0  0  0
    3.9576   -0.5743   -0.2545 C   0  0  0  0  0  0  0  0  0  0  0  0
    4.6645   -1.3161   -1.3461 C   0  0  0  0  0  0  0  0  0  0  0  0
    3.7270   -2.4633   -1.7005 C   0  0  0  0  0  0  0  0  0  0  0  0
    2.5931   -2.2774   -0.7376 C   0  0  0  0  0  0  0  0  0  0  0  0
    1.6107   -3.0015   -0.6536 O   0  0  0  0  0  0  0  0  0  0  0  0
    4.5746    0.6025    0.3516 C   0  0  0  0  0  0  0  0  0  0  0  0
    5.7187    0.4689    1.1449 C   0  0  0  0  0  0  0  0  0  0  0  0
    6.2878    1.5894    1.7541 C   0  0  0  0  0  0  0  0  0  0  0  0
    5.7210    2.8495    1.5694 C   0  0  0  0  0  0  0  0  0  0  0  0
    4.5838    2.9912    0.7746 C   0  0  0  0  0  0  0  0  0  0  0  0
    4.0082    1.8712    0.1710 C   0  0  0  0  0  0  0  0  0  0  0  0
   -0.3822   -1.2014    0.2248 N   0  0  0  0  0  0  0  0  0  0  0  0
   -1.6486   -0.8906   -0.4319 C   0  0  0  0  0  0  0  0  0  0  0  0
   -2.2997   -2.1674   -0.9795 C   0  0  0  0  0  0  0  0  0  0  0  0
   -3.8183   -2.1478   -0.8473 C   0  0  0  0  0  0  0  0  0  0  0  0
   -4.3188   -0.8502   -1.1356 O   0  0  0  0  0  0  0  0  0  0  0  0
   -3.9445    0.1607   -0.1749 C   0  0  0  0  0  0  0  0  0  0  0  0
   -5.0939    0.2917    0.8476 C   0  0  0  0  0  0  0  0  0  0  0  0
   -5.2842    1.7418    1.2627 C   0  0  0  0  0  0  0  0  0  0  0  0
   -5.6475    2.5819    0.1687 O   0  0  0  0  0  0  0  0  0  0  0  0
   -5.1342    2.1739   -1.1016 C   0  0  0  0  0  0  0  0  0  0  0  0
   -3.7903    1.4686   -0.9824 C   0  0  0  0  0  0  0  0  0  0  0  0
   -2.6130   -0.1896    0.5298 C   0  0  0  0  0  0  0  0  0  0  0  0
    1.5784   -1.6029    1.8045 H   0  0  0  0  0  0  0  0  0  0  0  0
    2.1929    0.0379    1.8512 H   0  0  0  0  0  0  0  0  0  0  0  0
    5.6340   -1.7004   -1.0111 H   0  0  0  0  0  0  0  0  0  0  0  0
    4.8361   -0.6770   -2.2175 H   0  0  0  0  0  0  0  0  0  0  0  0
    4.2033   -3.4357   -1.5403 H   0  0  0  0  0  0  0  0  0  0  0  0
    3.3619   -2.3820   -2.7285 H   0  0  0  0  0  0  0  0  0  0  0  0
    6.1682   -0.5086    1.3081 H   0  0  0  0  0  0  0  0  0  0  0  0
    7.1717    1.4775    2.3792 H   0  0  0  0  0  0  0  0  0  0  0  0
    6.1621    3.7225    2.0443 H   0  0  0  0  0  0  0  0  0  0  0  0
    4.1376    3.9727    0.6298 H   0  0  0  0  0  0  0  0  0  0  0  0
    3.1139    1.9999   -0.4395 H   0  0  0  0  0  0  0  0  0  0  0  0
    0.0416   -2.1067    0.0116 H   0  0  0  0  0  0  0  0  0  0  0  0
   -1.4181   -0.2174   -1.2662 H   0  0  0  0  0  0  0  0  0  0  0  0
   -1.9160   -3.0689   -0.4900 H   0  0  0  0  0  0  0  0  0  0  0  0
   -2.0307   -2.2578   -2.0381 H   0  0  0  0  0  0  0  0  0  0  0  0
   -4.1400   -2.4584    0.1526 H   0  0  0  0  0  0  0  0  0  0  0  0
   -4.2605   -2.8492   -1.5607 H   0  0  0  0  0  0  0  0  0  0  0  0
   -6.0306   -0.0848    0.4080 H   0  0  0  0  0  0  0  0  0  0  0  0
   -4.9058   -0.3257    1.7355 H   0  0  0  0  0  0  0  0  0  0  0  0
   -6.0760    1.8196    2.0149 H   0  0  0  0  0  0  0  0  0  0  0  0
   -4.3690    2.1424    1.7168 H   0  0  0  0  0  0  0  0  0  0  0  0
   -5.8782    1.5304   -1.5863 H   0  0  0  0  0  0  0  0  0  0  0  0
   -5.0353    3.0739   -1.7175 H   0  0  0  0  0  0  0  0  0  0  0  0
   -3.3953    1.2625   -1.9837 H   0  0  0  0  0  0  0  0  0  0  0  0
   -3.0918    2.1496   -0.4800 H   0  0  0  0  0  0  0  0  0  0  0  0
   -2.1703    0.7029    0.9857 H   0  0  0  0  0  0  0  0  0  0  0  0
   -2.7970   -0.8720    1.3712 H   0  0  0  0  0  0  0  0  0  0  0  0
  1  2  2  0
  2  3  1  0
  3  4  1  0
  4  5  2  0
  5  6  1  0
  6  7  1  0
  7  8  1  0
  8  9  2  0
  5 10  1  0
 10 11  2  0
 11 12  1  0
 12 13  2  0
 13 14  1  0
 14 15  2  0
  2 16  1  0
 16 17  1  0
 17 18  1  0
 18 19  1  0
 19 20  1  0
 20 21  1  0
 21 22  1  0
 22 23  1  0
 23 24  1  0
 24 25  1  0
 25 26  1  0
 21 27  1  0
  8  4  1  0
 15 10  1  0
 27 17  1  0
 26 21  1  0
  3 28  1  0
  3 29  1  0
  6 30  1  0
  6 31  1  0
  7 32  1  0
  7 33  1  0
 11 34  1  0
 12 35  1  0
 13 36  1  0
 14 37  1  0
 15 38  1  0
 16 39  1  0
 17 40  1  0
 18 41  1  0
 18 42  1  0
 19 43  1  0
 19 44  1  0
 22 45  1  0
 22 46  1  0
 23 47  1  0
 23 48  1  0
 25 49  1  0
 25 50  1  0
 26 51  1  0
 26 52  1  0
 27 53  1  0
 27 54  1  0
M  END
>  <Unnamed: 0>  (190) 
1152

>  <ID>  (190) 
TRAIN_1152

>  <Canonical_Smiles>  (190) 
O=C(CC1=C(CCC1=O)c2ccccc2)NC3CCOC4(CCOCC4)C3

>  <Inhibition>  (190) 
24.6

>  <TDC_conf_true_inhibitor>  (190) 
1

>  <TDC_conf_non_inhibitor>  (190) 
0

>  <split>  (190) 
1

$$$$
190
     RDKit          3D

 29 30  0  0  0  0  0  0  0  0999 V2000
    3.3153    1.7189    0.7405 C   0  0  0  0  0  0  0  0  0  0  0  0
    2.8323    0.6219   -0.0579 N   0  0  0  0  0  0  0  0  0  0  0  0
    3.4838   -0.5694   -0.2082 C   0  0  0  0  0  0  0  0  0  0  0  0
    4.6021   -0.8417    0.2080 O   0  0  0  0  0  0  0  0  0  0  0  0
    2.5870   -1.5432   -0.9528 C   0  0  0  0  0  0  0  0  0  0  0  0
    1.4590   -0.6912   -1.2294 N   0  0  0  0  0  0  0  0  0  0  0  0
    0.1242   -1.3425   -1.3934 N   0  0  0  0  0  0  0  0  0  0  0  0
   -0.7601   -1.7595   -0.0012 S   0  0  0  0  0  6  0  0  0  0  0  0
   -1.4202   -3.0161   -0.2781 O   0  0  0  0  0  0  0  0  0  0  0  0
    0.1360   -1.6357    1.1323 O   0  0  0  0  0  0  0  0  0  0  0  0
   -1.9880   -0.4963    0.1011 C   0  0  0  0  0  0  0  0  0  0  0  0
   -2.0360    0.2863    1.2658 C   0  0  0  0  0  0  0  0  0  0  0  0
   -2.9927    1.2904    1.3849 C   0  0  0  0  0  0  0  0  0  0  0  0
   -3.0519    2.2519    2.8094 Cl  0  0  0  0  0  0  0  0  0  0  0  0
   -3.9060    1.5186    0.3591 C   0  0  0  0  0  0  0  0  0  0  0  0
   -3.8596    0.7359   -0.7972 C   0  0  0  0  0  0  0  0  0  0  0  0
   -2.9011   -0.2764   -0.9335 C   0  0  0  0  0  0  0  0  0  0  0  0
   -2.9325   -1.1797   -2.4049 Cl  0  0  0  0  0  0  0  0  0  0  0  0
    1.5596    0.5294   -0.5452 C   0  0  0  0  0  0  0  0  0  0  0  0
    0.6533    1.3341   -0.3851 O   0  0  0  0  0  0  0  0  0  0  0  0
    2.8582    2.6549    0.4082 H   0  0  0  0  0  0  0  0  0  0  0  0
    3.0356    1.5365    1.7825 H   0  0  0  0  0  0  0  0  0  0  0  0
    4.4045    1.7834    0.6709 H   0  0  0  0  0  0  0  0  0  0  0  0
    2.3116   -2.3783   -0.3056 H   0  0  0  0  0  0  0  0  0  0  0  0
    3.0415   -1.8674   -1.8904 H   0  0  0  0  0  0  0  0  0  0  0  0
    0.0001   -2.0174   -2.1524 H   0  0  0  0  0  0  0  0  0  0  0  0
   -1.3253    0.1246    2.0735 H   0  0  0  0  0  0  0  0  0  0  0  0
   -4.6532    2.3031    0.4506 H   0  0  0  0  0  0  0  0  0  0  0  0
   -4.5774    0.9248   -1.5932 H   0  0  0  0  0  0  0  0  0  0  0  0
  1  2  1  0
  2  3  1  0
  3  4  2  0
  3  5  1  0
  5  6  1  0
  6  7  1  0
  7  8  1  0
  8  9  2  0
  8 10  2  0
  8 11  1  0
 11 12  2  0
 12 13  1  0
 13 14  1  0
 13 15  2  0
 15 16  1  0
 16 17  2  0
 17 18  1  0
  6 19  1  0
 19 20  2  0
 19  2  1  0
 17 11  1  0
  1 21  1  0
  1 22  1  0
  1 23  1  0
  5 24  1  0
  5 25  1  0
  7 26  1  0
 12 27  1  0
 15 28  1  0
 16 29  1  0
M  END
>  <Unnamed: 0>  (191) 
1158

>  <ID>  (191) 
TRAIN_1158

>  <Canonical_Smiles>  (191) 
CN1C(=O)CN(NS(=O)(=O)c2cc(Cl)ccc2Cl)C1=O

>  <Inhibition>  (191) 
31.8

>  <TDC_conf_true_inhibitor>  (191) 
0

>  <TDC_conf_non_inhibitor>  (191) 
1

>  <split>  (191) 
1

$$$$
191
     RDKit          3D

 45 48  0  0  0  0  0  0  0  0999 V2000
    2.5701    0.4533    2.0415 O   0  0  0  0  0  0  0  0  0  0  0  0
    2.8751    0.2529    0.8667 C   0  0  0  0  0  0  0  0  0  0  0  0
    1.8353    0.2862   -0.2428 C   0  0  0  0  0  0  0  0  0  0  0  0
    0.4233    0.5260    0.2928 C   0  0  0  0  0  0  0  0  0  0  0  0
   -0.6087    0.4484   -0.8301 C   0  0  0  0  0  0  0  0  0  0  0  0
   -1.9440    0.7797   -0.3063 N   0  0  0  0  0  0  0  0  0  0  0  0
   -2.8703   -0.2541    0.0933 C   0  0  0  0  0  0  0  0  0  0  0  0
   -2.5618   -1.4360    0.7477 C   0  0  0  0  0  0  0  0  0  0  0  0
   -3.6085   -2.2559    1.1993 C   0  0  0  0  0  0  0  0  0  0  0  0
   -4.9534   -1.8793    1.0264 C   0  0  0  0  0  0  0  0  0  0  0  0
   -5.2742   -0.6660    0.3928 C   0  0  0  0  0  0  0  0  0  0  0  0
   -6.5698   -0.1520    0.1695 C   0  0  0  0  0  0  0  0  0  0  0  0
   -6.7518    1.0874   -0.4804 C   0  0  0  0  0  0  0  0  0  0  0  0
   -5.6547    1.8321   -0.9278 C   0  0  0  0  0  0  0  0  0  0  0  0
   -4.3980    1.3055   -0.6997 C   0  0  0  0  0  0  0  0  0  0  0  0
   -4.2011    0.1075   -0.0542 C   0  0  0  0  0  0  0  0  0  0  0  0
   -2.8551    1.9491   -1.1966 S   0  0  0  0  0  6  0  0  0  0  0  0
   -2.6580    3.2516   -0.6047 O   0  0  0  0  0  0  0  0  0  0  0  0
   -2.7054    1.6891   -2.6121 O   0  0  0  0  0  0  0  0  0  0  0  0
    4.1772   -0.0247    0.4833 N   0  0  0  0  0  0  0  0  0  0  0  0
    4.6215   -0.2727   -0.8917 C   0  0  0  0  0  0  0  0  0  0  0  0
    6.1330   -0.0672   -1.0338 C   0  0  0  0  0  0  0  0  0  0  0  0
    6.9031   -0.9023   -0.1608 O   0  0  0  0  0  0  0  0  0  0  0  0
    6.2730   -1.1716    1.1008 C   0  0  0  0  0  0  0  0  0  0  0  0
    5.2190   -0.1373    1.5072 C   0  0  0  0  0  0  0  0  0  0  0  0
    2.0929    1.0916   -0.9391 H   0  0  0  0  0  0  0  0  0  0  0  0
    1.8671   -0.6708   -0.7759 H   0  0  0  0  0  0  0  0  0  0  0  0
    0.1920   -0.2064    1.0744 H   0  0  0  0  0  0  0  0  0  0  0  0
    0.3750    1.5114    0.7743 H   0  0  0  0  0  0  0  0  0  0  0  0
   -0.6106   -0.5442   -1.2952 H   0  0  0  0  0  0  0  0  0  0  0  0
   -0.3214    1.1626   -1.6108 H   0  0  0  0  0  0  0  0  0  0  0  0
   -1.5352   -1.7308    0.9324 H   0  0  0  0  0  0  0  0  0  0  0  0
   -3.3763   -3.1885    1.7101 H   0  0  0  0  0  0  0  0  0  0  0  0
   -5.7423   -2.5294    1.3980 H   0  0  0  0  0  0  0  0  0  0  0  0
   -7.4427   -0.7103    0.5015 H   0  0  0  0  0  0  0  0  0  0  0  0
   -7.7603    1.4642   -0.6407 H   0  0  0  0  0  0  0  0  0  0  0  0
   -5.7847    2.7787   -1.4418 H   0  0  0  0  0  0  0  0  0  0  0  0
    4.3592   -1.3118   -1.1213 H   0  0  0  0  0  0  0  0  0  0  0  0
    4.0869    0.3813   -1.5853 H   0  0  0  0  0  0  0  0  0  0  0  0
    6.3992    0.9748   -0.8205 H   0  0  0  0  0  0  0  0  0  0  0  0
    6.4489   -0.2817   -2.0596 H   0  0  0  0  0  0  0  0  0  0  0  0
    7.0614   -1.2284    1.8579 H   0  0  0  0  0  0  0  0  0  0  0  0
    5.8155   -2.1652    1.0287 H   0  0  0  0  0  0  0  0  0  0  0  0
    4.7831   -0.4013    2.4759 H   0  0  0  0  0  0  0  0  0  0  0  0
    5.6768    0.8546    1.5977 H   0  0  0  0  0  0  0  0  0  0  0  0
  1  2  2  0
  2  3  1  0
  3  4  1  0
  4  5  1  0
  5  6  1  0
  6  7  1  0
  7  8  2  0
  8  9  1  0
  9 10  2  0
 10 11  1  0
 11 12  2  0
 12 13  1  0
 13 14  2  0
 14 15  1  0
 15 16  2  0
 15 17  1  0
 17 18  2  0
 17 19  2  0
  2 20  1  0
 20 21  1  0
 21 22  1  0
 22 23  1  0
 23 24  1  0
 24 25  1  0
 17  6  1  0
 16  7  1  0
 16 11  1  0
 25 20  1  0
  3 26  1  0
  3 27  1  0
  4 28  1  0
  4 29  1  0
  5 30  1  0
  5 31  1  0
  8 32  1  0
  9 33  1  0
 10 34  1  0
 12 35  1  0
 13 36  1  0
 14 37  1  0
 21 38  1  0
 21 39  1  0
 22 40  1  0
 22 41  1  0
 24 42  1  0
 24 43  1  0
 25 44  1  0
 25 45  1  0
M  END
>  <Unnamed: 0>  (192) 
1160

>  <ID>  (192) 
TRAIN_1160

>  <Canonical_Smiles>  (192) 
O=C(CCCN1c2cccc3cccc(c23)S1(=O)=O)N4CCOCC4

>  <Inhibition>  (192) 
45.4

>  <TDC_conf_true_inhibitor>  (192) 
1

>  <TDC_conf_non_inhibitor>  (192) 
0

>  <split>  (192) 
1

$$$$
192
     RDKit          3D

 30 33  0  0  0  0  0  0  0  0999 V2000
   -1.4155    1.9045    0.4647 C   0  0  0  0  0  0  0  0  0  0  0  0
   -2.2672    0.7700   -0.0069 C   0  0  0  0  0  0  0  0  0  0  0  0
   -3.5884    0.9314   -0.3865 C   0  0  0  0  0  0  0  0  0  0  0  0
   -4.3300   -0.5285   -0.8558 S   0  0  0  0  0  0  0  0  0  0  0  0
   -2.9051   -1.4113   -0.5651 C   0  0  0  0  0  0  0  0  0  0  0  0
   -2.8913   -2.7403   -0.7652 N   0  0  0  0  0  0  0  0  0  0  0  0
   -1.7090   -3.2891   -0.4861 C   0  0  0  0  0  0  0  0  0  0  0  0
   -0.6042   -2.6655   -0.0615 N   0  0  0  0  0  0  0  0  0  0  0  0
   -0.6502   -1.3210    0.1043 C   0  0  0  0  0  0  0  0  0  0  0  0
    0.5790   -0.6813    0.5439 C   0  0  0  0  0  0  0  0  0  0  0  0
    1.0136   -0.7601    1.8813 C   0  0  0  0  0  0  0  0  0  0  0  0
    2.1902   -0.1403    2.2974 C   0  0  0  0  0  0  0  0  0  0  0  0
    2.9825    0.5726    1.3956 C   0  0  0  0  0  0  0  0  0  0  0  0
    2.5591    0.6311    0.0628 C   0  0  0  0  0  0  0  0  0  0  0  0
    3.1468    1.2410   -1.0234 N   0  0  0  0  0  0  0  0  0  0  0  0
    2.3923    1.0393   -2.1470 C   0  0  0  0  0  0  0  0  0  0  0  0
    1.3005    0.2835   -1.7885 C   0  0  0  0  0  0  0  0  0  0  0  0
    1.3859    0.0196   -0.3875 C   0  0  0  0  0  0  0  0  0  0  0  0
   -1.8500   -0.6189   -0.1284 C   0  0  0  0  0  0  0  0  0  0  0  0
   -0.6631    2.1592   -0.2865 H   0  0  0  0  0  0  0  0  0  0  0  0
   -0.9185    1.6565    1.4069 H   0  0  0  0  0  0  0  0  0  0  0  0
   -2.0188    2.8014    0.6438 H   0  0  0  0  0  0  0  0  0  0  0  0
   -4.1619    1.8488   -0.4041 H   0  0  0  0  0  0  0  0  0  0  0  0
   -1.6326   -4.3637   -0.6186 H   0  0  0  0  0  0  0  0  0  0  0  0
    0.4209   -1.3177    2.6044 H   0  0  0  0  0  0  0  0  0  0  0  0
    2.4987   -0.2181    3.3375 H   0  0  0  0  0  0  0  0  0  0  0  0
    3.9008    1.0506    1.7213 H   0  0  0  0  0  0  0  0  0  0  0  0
    4.0164    1.7547   -0.9898 H   0  0  0  0  0  0  0  0  0  0  0  0
    2.6994    1.4419   -3.1029 H   0  0  0  0  0  0  0  0  0  0  0  0
    0.5197   -0.0503   -2.4601 H   0  0  0  0  0  0  0  0  0  0  0  0
  1  2  1  0
  2  3  2  0
  3  4  1  0
  4  5  1  0
  5  6  2  0
  6  7  1  0
  7  8  2  0
  8  9  1  0
  9 10  1  0
 10 11  2  0
 11 12  1  0
 12 13  2  0
 13 14  1  0
 14 15  1  0
 15 16  1  0
 16 17  2  0
 17 18  1  0
  9 19  2  0
 19  2  1  0
 19  5  1  0
 18 10  1  0
 18 14  2  0
  1 20  1  0
  1 21  1  0
  1 22  1  0
  3 23  1  0
  7 24  1  0
 11 25  1  0
 12 26  1  0
 13 27  1  0
 15 28  1  0
 16 29  1  0
 17 30  1  0
M  END
>  <Unnamed: 0>  (193) 
1172

>  <ID>  (193) 
TRAIN_1172

>  <Canonical_Smiles>  (193) 
Cc1csc2ncnc(c3cccc4[nH]ccc34)c12

>  <Inhibition>  (193) 
85.4

>  <TDC_conf_true_inhibitor>  (193) 
1

>  <TDC_conf_non_inhibitor>  (193) 
0

>  <split>  (193) 
1

$$$$
193
     RDKit          3D

 45 47  0  0  0  0  0  0  0  0999 V2000
    2.0609   -1.9688    1.7703 C   0  0  0  0  0  0  0  0  0  0  0  0
    1.3218   -1.0364    0.8030 C   0  0  2  0  0  0  0  0  0  0  0  0
    0.0199   -1.7179    0.3420 C   0  0  0  0  0  0  0  0  0  0  0  0
   -0.7676   -0.8361   -0.5219 N   0  0  0  0  0  0  0  0  0  0  0  0
   -0.0664    0.2026   -1.2762 C   0  0  0  0  0  0  0  0  0  0  0  0
    1.3175   -0.3064   -1.6598 C   0  0  0  0  0  0  0  0  0  0  0  0
    2.1841   -0.5710   -0.4099 C   0  0  2  0  0  0  0  0  0  0  0  0
    3.1601   -1.5589   -0.7550 O   0  0  0  0  0  0  0  0  0  0  0  0
    2.9323    0.7274   -0.0379 C   0  0  0  0  0  0  0  0  0  0  0  0
    4.1001    0.6768    0.9938 C   0  0  0  0  0  0  0  0  0  0  0  0
    4.7666    1.8098    0.1893 C   0  0  0  0  0  0  0  0  0  0  0  0
    3.9878    1.2963   -1.0374 C   0  0  0  0  0  0  0  0  0  0  0  0
   -2.0953   -0.5606   -0.2047 C   0  0  0  0  0  0  0  0  0  0  0  0
   -2.9521   -1.5127    0.3533 C   0  0  0  0  0  0  0  0  0  0  0  0
   -4.2534   -1.2902    0.6725 N   0  0  0  0  0  0  0  0  0  0  0  0
   -4.7192   -0.0506    0.3983 C   0  0  0  0  0  0  0  0  0  0  0  0
   -6.1527    0.2187    0.7391 C   0  0  0  0  0  0  0  0  0  0  0  0
   -3.8966    0.9181   -0.1797 C   0  0  0  0  0  0  0  0  0  0  0  0
   -4.3961    2.2939   -0.5005 C   0  0  0  0  0  0  0  0  0  0  0  0
   -2.5942    0.6652   -0.4837 N   0  0  0  0  0  0  0  0  0  0  0  0
    2.9764   -1.5121    2.1528 H   0  0  0  0  0  0  0  0  0  0  0  0
    1.4297   -2.2001    2.6356 H   0  0  0  0  0  0  0  0  0  0  0  0
    2.3243   -2.9187    1.2934 H   0  0  0  0  0  0  0  0  0  0  0  0
    1.0212   -0.1483    1.3777 H   0  0  0  0  0  0  0  0  0  0  0  0
   -0.5386   -2.0212    1.2356 H   0  0  0  0  0  0  0  0  0  0  0  0
    0.2496   -2.6357   -0.2136 H   0  0  0  0  0  0  0  0  0  0  0  0
   -0.6138    0.4331   -2.1989 H   0  0  0  0  0  0  0  0  0  0  0  0
    0.0161    1.1274   -0.6918 H   0  0  0  0  0  0  0  0  0  0  0  0
    1.8003    0.4103   -2.3337 H   0  0  0  0  0  0  0  0  0  0  0  0
    1.2100   -1.2298   -2.2456 H   0  0  0  0  0  0  0  0  0  0  0  0
    2.6970   -2.3461   -1.0887 H   0  0  0  0  0  0  0  0  0  0  0  0
    2.2072    1.5106    0.2375 H   0  0  0  0  0  0  0  0  0  0  0  0
    4.6824   -0.2516    0.9906 H   0  0  0  0  0  0  0  0  0  0  0  0
    3.8336    0.9262    2.0242 H   0  0  0  0  0  0  0  0  0  0  0  0
    4.4705    2.8145    0.5122 H   0  0  0  0  0  0  0  0  0  0  0  0
    5.8558    1.7649    0.1153 H   0  0  0  0  0  0  0  0  0  0  0  0
    4.5319    0.5404   -1.6152 H   0  0  0  0  0  0  0  0  0  0  0  0
    3.6266    2.0701   -1.7201 H   0  0  0  0  0  0  0  0  0  0  0  0
   -2.6176   -2.5253    0.5474 H   0  0  0  0  0  0  0  0  0  0  0  0
   -6.7182    0.4762   -0.1616 H   0  0  0  0  0  0  0  0  0  0  0  0
   -6.2270    1.0366    1.4622 H   0  0  0  0  0  0  0  0  0  0  0  0
   -6.6185   -0.6661    1.1856 H   0  0  0  0  0  0  0  0  0  0  0  0
   -3.6018    2.9006   -0.9482 H   0  0  0  0  0  0  0  0  0  0  0  0
   -4.7319    2.8009    0.4092 H   0  0  0  0  0  0  0  0  0  0  0  0
   -5.2223    2.2439   -1.2162 H   0  0  0  0  0  0  0  0  0  0  0  0
  1  2  1  0
  2  3  1  0
  3  4  1  0
  4  5  1  0
  5  6  1  0
  6  7  1  0
  7  8  1  6
  7  9  1  0
  9 10  1  0
 10 11  1  0
 11 12  1  0
  4 13  1  0
 13 14  2  0
 14 15  1  0
 15 16  2  0
 16 17  1  0
 16 18  1  0
 18 19  1  0
 18 20  2  0
  7  2  1  0
 12  9  1  0
 20 13  1  0
  1 21  1  0
  1 22  1  0
  1 23  1  0
  2 24  1  1
  3 25  1  0
  3 26  1  0
  5 27  1  0
  5 28  1  0
  6 29  1  0
  6 30  1  0
  8 31  1  0
  9 32  1  0
 10 33  1  0
 10 34  1  0
 11 35  1  0
 11 36  1  0
 12 37  1  0
 12 38  1  0
 14 39  1  0
 17 40  1  0
 17 41  1  0
 17 42  1  0
 19 43  1  0
 19 44  1  0
 19 45  1  0
M  END
>  <Unnamed: 0>  (194) 
1179

>  <ID>  (194) 
TRAIN_1179

>  <Canonical_Smiles>  (194) 
C[C@@H]1CN(CC[C@@]1(O)C2CCC2)c3cnc(C)c(C)n3

>  <Inhibition>  (194) 
26.9

>  <TDC_conf_true_inhibitor>  (194) 
0

>  <TDC_conf_non_inhibitor>  (194) 
1

>  <split>  (194) 
1

$$$$
194
     RDKit          3D

 52 55  0  0  0  0  0  0  0  0999 V2000
   -3.4368    2.4023    1.3394 C   0  0  0  0  0  0  0  0  0  0  0  0
   -3.2985    1.0075    0.9244 N   0  0  0  0  0  0  0  0  0  0  0  0
   -4.0934    0.7362   -0.2754 C   0  0  0  0  0  0  0  0  0  0  0  0
   -3.9584   -0.6819   -0.8731 C   0  0  2  0  0  0  0  0  0  0  0  0
   -4.0001   -1.7703    0.2082 C   0  0  0  0  0  0  0  0  0  0  0  0
   -2.7095   -1.8003    1.0395 C   0  0  0  0  0  0  0  0  0  0  0  0
   -1.6171   -0.8701    0.4686 C   0  0  2  0  0  0  0  0  0  0  0  0
   -1.8850    0.6299    0.8030 C   0  0  0  0  0  0  0  0  0  0  0  0
   -1.4842   -1.1794   -0.9658 N   0  0  0  0  0  0  0  0  0  0  0  0
   -0.2641   -0.6938   -1.6161 C   0  0  0  0  0  0  0  0  0  0  0  0
    0.9415   -1.3840   -1.0666 C   0  0  0  0  0  0  0  0  0  0  0  0
    1.2521   -2.7261   -1.1598 C   0  0  0  0  0  0  0  0  0  0  0  0
    2.4417   -2.8916   -0.5252 N   0  0  0  0  0  0  0  0  0  0  0  0
    2.9514   -1.7533   -0.0381 N   0  0  0  0  0  0  0  0  0  0  0  0
    2.0412   -0.8202   -0.3470 C   0  0  0  0  0  0  0  0  0  0  0  0
    2.2375    0.6262    0.0467 C   0  0  0  0  0  0  0  0  0  0  0  0
    2.9401    0.8302    1.4023 C   0  0  0  0  0  0  0  0  0  0  0  0
    4.4641    0.7090    1.3496 C   0  0  0  0  0  0  0  0  0  0  0  0
    5.0705    1.5516    0.2338 C   0  0  0  0  0  0  0  0  0  0  0  0
    4.4303    1.2452   -1.1149 C   0  0  0  0  0  0  0  0  0  0  0  0
    2.9163    1.4390   -1.0682 C   0  0  0  0  0  0  0  0  0  0  0  0
   -2.6832   -0.8197   -1.7275 C   0  0  0  0  0  0  0  0  0  0  0  0
   -4.4903    2.6543    1.5047 H   0  0  0  0  0  0  0  0  0  0  0  0
   -3.0288    3.0953    0.5948 H   0  0  0  0  0  0  0  0  0  0  0  0
   -2.9216    2.5760    2.2907 H   0  0  0  0  0  0  0  0  0  0  0  0
   -5.1501    0.8733   -0.0093 H   0  0  0  0  0  0  0  0  0  0  0  0
   -3.8769    1.4768   -1.0570 H   0  0  0  0  0  0  0  0  0  0  0  0
   -4.8193   -0.8275   -1.5394 H   0  0  0  0  0  0  0  0  0  0  0  0
   -4.1293   -2.7471   -0.2758 H   0  0  0  0  0  0  0  0  0  0  0  0
   -4.8692   -1.6369    0.8633 H   0  0  0  0  0  0  0  0  0  0  0  0
   -2.9272   -1.5341    2.0813 H   0  0  0  0  0  0  0  0  0  0  0  0
   -2.3358   -2.8326    1.0667 H   0  0  0  0  0  0  0  0  0  0  0  0
   -0.6910   -1.1487    0.9867 H   0  0  0  0  0  0  0  0  0  0  0  0
   -1.4079    0.8149    1.7754 H   0  0  0  0  0  0  0  0  0  0  0  0
   -1.3691    1.2859    0.0919 H   0  0  0  0  0  0  0  0  0  0  0  0
   -0.1705    0.3948   -1.5493 H   0  0  0  0  0  0  0  0  0  0  0  0
   -0.3035   -0.9310   -2.6883 H   0  0  0  0  0  0  0  0  0  0  0  0
    0.7236   -3.5559   -1.6063 H   0  0  0  0  0  0  0  0  0  0  0  0
    2.9663   -3.7490   -0.3903 H   0  0  0  0  0  0  0  0  0  0  0  0
    1.2277    1.0402    0.1736 H   0  0  0  0  0  0  0  0  0  0  0  0
    2.5418    0.1370    2.1534 H   0  0  0  0  0  0  0  0  0  0  0  0
    2.6994    1.8408    1.7595 H   0  0  0  0  0  0  0  0  0  0  0  0
    4.8849    1.0230    2.3121 H   0  0  0  0  0  0  0  0  0  0  0  0
    4.7578   -0.3374    1.2150 H   0  0  0  0  0  0  0  0  0  0  0  0
    4.9386    2.6153    0.4675 H   0  0  0  0  0  0  0  0  0  0  0  0
    6.1498    1.3695    0.1801 H   0  0  0  0  0  0  0  0  0  0  0  0
    4.6689    0.2180   -1.4144 H   0  0  0  0  0  0  0  0  0  0  0  0
    4.8579    1.9042   -1.8792 H   0  0  0  0  0  0  0  0  0  0  0  0
    2.4869    1.1929   -2.0470 H   0  0  0  0  0  0  0  0  0  0  0  0
    2.7101    2.5041   -0.8980 H   0  0  0  0  0  0  0  0  0  0  0  0
   -2.8455   -1.6106   -2.4707 H   0  0  0  0  0  0  0  0  0  0  0  0
   -2.5341    0.1081   -2.2955 H   0  0  0  0  0  0  0  0  0  0  0  0
  1  2  1  0
  2  3  1  0
  3  4  1  0
  4  5  1  0
  5  6  1  0
  6  7  1  0
  7  8  1  0
  7  9  1  0
  9 10  1  0
 10 11  1  0
 11 12  2  0
 12 13  1  0
 13 14  1  0
 14 15  2  0
 15 16  1  0
 16 17  1  0
 17 18  1  0
 18 19  1  0
 19 20  1  0
 20 21  1  0
  9 22  1  0
  8  2  1  0
 22  4  1  0
 15 11  1  0
 21 16  1  0
  1 23  1  0
  1 24  1  0
  1 25  1  0
  3 26  1  0
  3 27  1  0
  4 28  1  6
  5 29  1  0
  5 30  1  0
  6 31  1  0
  6 32  1  0
  7 33  1  1
  8 34  1  0
  8 35  1  0
 10 36  1  0
 10 37  1  0
 12 38  1  0
 13 39  1  0
 16 40  1  0
 17 41  1  0
 17 42  1  0
 18 43  1  0
 18 44  1  0
 19 45  1  0
 19 46  1  0
 20 47  1  0
 20 48  1  0
 21 49  1  0
 21 50  1  0
 22 51  1  0
 22 52  1  0
M  END
>  <Unnamed: 0>  (195) 
1182

>  <ID>  (195) 
TRAIN_1182

>  <Canonical_Smiles>  (195) 
CN1C[C@@H]2CC[C@H](C1)N(Cc3c[nH]nc3C4CCCCC4)C2

>  <Inhibition>  (195) 
48.2

>  <TDC_conf_true_inhibitor>  (195) 
0

>  <TDC_conf_non_inhibitor>  (195) 
1

>  <split>  (195) 
1

$$$$
195
     RDKit          3D

 51 54  0  0  0  0  0  0  0  0999 V2000
   -7.7089   -1.1435   -1.1217 C   0  0  0  0  0  0  0  0  0  0  0  0
   -6.3383   -0.7192   -0.6696 C   0  0  0  0  0  0  0  0  0  0  0  0
   -5.2633   -0.7998   -1.5673 C   0  0  0  0  0  0  0  0  0  0  0  0
   -3.9733   -0.4197   -1.1855 C   0  0  0  0  0  0  0  0  0  0  0  0
   -3.7367    0.0449    0.1115 C   0  0  0  0  0  0  0  0  0  0  0  0
   -4.8065    0.1224    1.0168 C   0  0  0  0  0  0  0  0  0  0  0  0
   -6.1061   -0.2611    0.6410 C   0  0  0  0  0  0  0  0  0  0  0  0
   -7.2198   -0.1581    1.6468 C   0  0  0  0  0  0  0  0  0  0  0  0
   -2.4334    0.4368    0.5316 N   0  0  0  0  0  0  0  0  0  0  0  0
   -1.2672    0.4422   -0.2078 C   0  0  0  0  0  0  0  0  0  0  0  0
   -0.2511    0.8823    0.6174 C   0  0  0  0  0  0  0  0  0  0  0  0
    1.1917    1.0685    0.2944 C   0  0  0  0  0  0  0  0  0  0  0  0
    2.0189    0.1938    1.1332 N   0  0  0  0  0  0  0  0  0  0  0  0
    1.8979   -1.2374    0.8121 C   0  0  0  0  0  0  0  0  0  0  0  0
    2.5767   -1.6451   -0.4985 C   0  0  0  0  0  0  0  0  0  0  0  0
    4.0408   -1.2137   -0.5309 C   0  0  0  0  0  0  0  0  0  0  0  0
    4.1799    0.2770   -0.1946 C   0  0  0  0  0  0  0  0  0  0  0  0
    3.4396    0.6006    1.1216 C   0  0  0  0  0  0  0  0  0  0  0  0
    5.6416    0.6763   -0.1365 C   0  0  0  0  0  0  0  0  0  0  0  0
    6.2269    1.3377   -1.2022 C   0  0  0  0  0  0  0  0  0  0  0  0
    7.5658    1.6352   -1.0789 C   0  0  0  0  0  0  0  0  0  0  0  0
    8.3023    1.3138   -0.0016 N   0  0  0  0  0  0  0  0  0  0  0  0
    7.6464    0.6707    0.9738 C   0  0  0  0  0  0  0  0  0  0  0  0
    6.3481    0.3296    0.9611 N   0  0  0  0  0  0  0  0  0  0  0  0
   -0.9013    1.1294    1.8421 C   0  0  0  0  0  0  0  0  0  0  0  0
   -2.2097    0.8798    1.7959 N   0  0  0  0  0  0  0  0  0  0  0  0
   -7.7260   -1.3657   -2.1947 H   0  0  0  0  0  0  0  0  0  0  0  0
   -8.4356   -0.3442   -0.9460 H   0  0  0  0  0  0  0  0  0  0  0  0
   -8.0204   -2.0471   -0.5869 H   0  0  0  0  0  0  0  0  0  0  0  0
   -5.4238   -1.1641   -2.5799 H   0  0  0  0  0  0  0  0  0  0  0  0
   -3.1832   -0.5038   -1.9239 H   0  0  0  0  0  0  0  0  0  0  0  0
   -4.6336    0.4850    2.0297 H   0  0  0  0  0  0  0  0  0  0  0  0
   -7.7245   -1.1227    1.7587 H   0  0  0  0  0  0  0  0  0  0  0  0
   -7.9452    0.6003    1.3336 H   0  0  0  0  0  0  0  0  0  0  0  0
   -6.8449    0.1278    2.6355 H   0  0  0  0  0  0  0  0  0  0  0  0
   -1.2440    0.1374   -1.2419 H   0  0  0  0  0  0  0  0  0  0  0  0
    1.4328    2.1197    0.5010 H   0  0  0  0  0  0  0  0  0  0  0  0
    1.3688    0.9114   -0.7753 H   0  0  0  0  0  0  0  0  0  0  0  0
    0.8489   -1.5530    0.7945 H   0  0  0  0  0  0  0  0  0  0  0  0
    2.3504   -1.8084    1.6338 H   0  0  0  0  0  0  0  0  0  0  0  0
    2.0451   -1.2076   -1.3517 H   0  0  0  0  0  0  0  0  0  0  0  0
    2.5160   -2.7328   -0.6179 H   0  0  0  0  0  0  0  0  0  0  0  0
    4.4633   -1.4220   -1.5210 H   0  0  0  0  0  0  0  0  0  0  0  0
    4.6091   -1.8213    0.1855 H   0  0  0  0  0  0  0  0  0  0  0  0
    3.7037    0.8564   -0.9971 H   0  0  0  0  0  0  0  0  0  0  0  0
    3.9330    0.0971    1.9648 H   0  0  0  0  0  0  0  0  0  0  0  0
    3.5226    1.6719    1.3465 H   0  0  0  0  0  0  0  0  0  0  0  0
    5.6748    1.6073   -2.0936 H   0  0  0  0  0  0  0  0  0  0  0  0
    8.1003    2.1547   -1.8693 H   0  0  0  0  0  0  0  0  0  0  0  0
    8.2170    0.3977    1.8551 H   0  0  0  0  0  0  0  0  0  0  0  0
   -0.4656    1.4822    2.7690 H   0  0  0  0  0  0  0  0  0  0  0  0
  1  2  1  0
  2  3  2  0
  3  4  1  0
  4  5  2  0
  5  6  1  0
  6  7  2  0
  7  8  1  0
  5  9  1  0
  9 10  1  0
 10 11  2  0
 11 12  1  0
 12 13  1  0
 13 14  1  0
 14 15  1  0
 15 16  1  0
 16 17  1  0
 17 18  1  0
 17 19  1  0
 19 20  2  0
 20 21  1  0
 21 22  2  0
 22 23  1  0
 23 24  2  0
 11 25  1  0
 25 26  2  0
  7  2  1  0
 26  9  1  0
 18 13  1  0
 24 19  1  0
  1 27  1  0
  1 28  1  0
  1 29  1  0
  3 30  1  0
  4 31  1  0
  6 32  1  0
  8 33  1  0
  8 34  1  0
  8 35  1  0
 10 36  1  0
 12 37  1  0
 12 38  1  0
 14 39  1  0
 14 40  1  0
 15 41  1  0
 15 42  1  0
 16 43  1  0
 16 44  1  0
 17 45  1  0
 18 46  1  0
 18 47  1  0
 20 48  1  0
 21 49  1  0
 23 50  1  0
 25 51  1  0
M  END
>  <Unnamed: 0>  (196) 
1184

>  <ID>  (196) 
TRAIN_1184

>  <Canonical_Smiles>  (196) 
Cc1ccc(cc1C)n2cc(CN3CCCC(C3)c4ccncn4)cn2

>  <Inhibition>  (196) 
46.8

>  <TDC_conf_true_inhibitor>  (196) 
1

>  <TDC_conf_non_inhibitor>  (196) 
0

>  <split>  (196) 
1

$$$$
196
     RDKit          3D

 43 43  0  0  0  0  0  0  0  0999 V2000
   -4.4691   -0.9408    0.0865 C   0  0  0  0  0  0  0  0  0  0  0  0
   -3.9613    0.4501    0.5032 C   0  0  0  0  0  0  0  0  0  0  0  0
   -3.3651    0.3571    1.9174 C   0  0  0  0  0  0  0  0  0  0  0  0
   -5.1418    1.4347    0.5198 C   0  0  0  0  0  0  0  0  0  0  0  0
   -2.9029    0.9572   -0.5025 C   0  0  0  0  0  0  0  0  0  0  0  0
   -1.7987    0.0410   -0.5986 O   0  0  0  0  0  0  0  0  0  0  0  0
   -0.6170    0.4371   -0.0617 C   0  0  0  0  0  0  0  0  0  0  0  0
   -0.4270    1.5087    0.4969 O   0  0  0  0  0  0  0  0  0  0  0  0
    0.3566   -0.5196   -0.2122 N   0  0  0  0  0  0  0  0  0  0  0  0
    0.0990   -1.8865   -0.6404 C   0  0  0  0  0  0  0  0  0  0  0  0
    1.2395   -2.6910   -0.0381 C   0  0  1  0  0  0  0  0  0  0  0  0
    1.5524   -3.7543   -0.8115 F   0  0  0  0  0  0  0  0  0  0  0  0
    2.3882   -1.6973   -0.0192 C   0  0  0  0  0  0  0  0  0  0  0  0
    1.7038   -0.3697    0.3360 C   0  0  1  0  0  0  0  0  0  0  0  0
    2.4877    0.8361   -0.2186 C   0  0  0  0  0  0  0  0  0  0  0  0
    3.8339    0.8800    0.3917 N   0  0  0  0  0  0  0  0  0  0  0  0
    5.0451    1.6831   -0.4566 S   0  0  0  0  0  6  0  0  0  0  0  0
    6.0761    1.9677    0.5156 O   0  0  0  0  0  0  0  0  0  0  0  0
    4.4309    2.7248   -1.2457 O   0  0  0  0  0  0  0  0  0  0  0  0
    5.6370    0.3972   -1.5356 C   0  0  0  0  0  0  0  0  0  0  0  0
   -5.2519   -1.2954    0.7665 H   0  0  0  0  0  0  0  0  0  0  0  0
   -3.6642   -1.6837    0.0957 H   0  0  0  0  0  0  0  0  0  0  0  0
   -4.8919   -0.9185   -0.9240 H   0  0  0  0  0  0  0  0  0  0  0  0
   -2.5600   -0.3835    1.9683 H   0  0  0  0  0  0  0  0  0  0  0  0
   -2.9558    1.3221    2.2364 H   0  0  0  0  0  0  0  0  0  0  0  0
   -4.1270    0.0619    2.6479 H   0  0  0  0  0  0  0  0  0  0  0  0
   -5.6017    1.5176   -0.4713 H   0  0  0  0  0  0  0  0  0  0  0  0
   -5.9196    1.1116    1.2212 H   0  0  0  0  0  0  0  0  0  0  0  0
   -4.8169    2.4366    0.8222 H   0  0  0  0  0  0  0  0  0  0  0  0
   -2.5763    1.9722   -0.2466 H   0  0  0  0  0  0  0  0  0  0  0  0
   -3.3408    1.0187   -1.5060 H   0  0  0  0  0  0  0  0  0  0  0  0
   -0.8767   -2.2416   -0.2954 H   0  0  0  0  0  0  0  0  0  0  0  0
    0.1171   -1.9149   -1.7350 H   0  0  0  0  0  0  0  0  0  0  0  0
    0.9976   -3.0370    0.9725 H   0  0  0  0  0  0  0  0  0  0  0  0
    3.1642   -1.9757    0.7005 H   0  0  0  0  0  0  0  0  0  0  0  0
    2.8577   -1.6608   -1.0106 H   0  0  0  0  0  0  0  0  0  0  0  0
    1.6027   -0.2814    1.4256 H   0  0  0  0  0  0  0  0  0  0  0  0
    2.5583    0.7497   -1.3089 H   0  0  0  0  0  0  0  0  0  0  0  0
    1.9780    1.7762    0.0118 H   0  0  0  0  0  0  0  0  0  0  0  0
    3.8579    1.1558    1.3767 H   0  0  0  0  0  0  0  0  0  0  0  0
    4.8325    0.0969   -2.2089 H   0  0  0  0  0  0  0  0  0  0  0  0
    6.4711    0.8021   -2.1128 H   0  0  0  0  0  0  0  0  0  0  0  0
    5.9787   -0.4447   -0.9306 H   0  0  0  0  0  0  0  0  0  0  0  0
  1  2  1  0
  2  3  1  0
  2  4  1  0
  2  5  1  0
  5  6  1  0
  6  7  1  0
  7  8  2  0
  7  9  1  0
  9 10  1  0
 10 11  1  0
 11 12  1  0
 11 13  1  0
 13 14  1  0
 14 15  1  0
 15 16  1  0
 16 17  1  0
 17 18  2  0
 17 19  2  0
 17 20  1  0
 14  9  1  0
  1 21  1  0
  1 22  1  0
  1 23  1  0
  3 24  1  0
  3 25  1  0
  3 26  1  0
  4 27  1  0
  4 28  1  0
  4 29  1  0
  5 30  1  0
  5 31  1  0
 10 32  1  0
 10 33  1  0
 11 34  1  1
 13 35  1  0
 13 36  1  0
 14 37  1  1
 15 38  1  0
 15 39  1  0
 16 40  1  0
 20 41  1  0
 20 42  1  0
 20 43  1  0
M  END
>  <Unnamed: 0>  (197) 
1186

>  <ID>  (197) 
TRAIN_1186

>  <Canonical_Smiles>  (197) 
CC(C)(C)COC(=O)N1C[C@@H](F)C[C@H]1CNS(=O)(=O)C

>  <Inhibition>  (197) 
37.2

>  <TDC_conf_true_inhibitor>  (197) 
0

>  <TDC_conf_non_inhibitor>  (197) 
1

>  <split>  (197) 
1

$$$$
197
     RDKit          3D

 49 49  0  0  0  0  0  0  0  0999 V2000
   -0.7448    2.9333   -3.6787 C   0  0  0  0  0  0  0  0  0  0  0  0
   -0.9623    1.7447   -2.7533 C   0  0  0  0  0  0  0  0  0  0  0  0
   -0.8161    2.1544   -1.2860 C   0  0  0  0  0  0  0  0  0  0  0  0
   -1.0181    1.0432   -0.2458 C   0  0  1  0  0  0  0  0  0  0  0  0
   -2.3627    0.3264   -0.3062 C   0  0  0  0  0  0  0  0  0  0  0  0
   -2.1319   -0.7917    0.6107 N   0  0  0  0  0  0  0  0  0  0  0  0
   -3.1614   -1.8364    0.5589 C   0  0  0  0  0  0  0  0  0  0  0  0
   -4.5905   -1.3628    0.9019 C   0  0  0  0  0  0  0  0  0  0  0  0
   -4.7111   -0.6551    2.1372 O   0  0  0  0  0  0  0  0  0  0  0  0
   -4.3985   -1.4419    3.2761 C   0  0  0  0  0  0  0  0  0  0  0  0
   -0.7884   -1.3081    0.3013 C   0  0  0  0  0  0  0  0  0  0  0  0
   -0.0166   -0.1181   -0.3062 C   0  0  2  0  0  0  0  0  0  0  0  0
    1.2038    0.2413    0.4564 N   0  0  0  0  0  0  0  0  0  0  0  0
    2.4903   -0.8217    0.3033 S   0  0  0  0  0  6  0  0  0  0  0  0
    2.2692   -1.8797    1.2572 O   0  0  0  0  0  0  0  0  0  0  0  0
    2.7178   -1.0820   -1.0972 O   0  0  0  0  0  0  0  0  0  0  0  0
    3.7095    0.1850    0.8804 N   0  0  0  0  0  0  0  0  0  0  0  0
    4.0274    1.3525    0.0330 C   0  0  0  0  0  0  0  0  0  0  0  0
    4.9093   -0.4906    1.4388 C   0  0  0  0  0  0  0  0  0  0  0  0
    5.6847   -1.2964    0.4082 C   0  0  0  0  0  0  0  0  0  0  0  0
    0.2553    3.3558   -3.5478 H   0  0  0  0  0  0  0  0  0  0  0  0
   -0.8470    2.6242   -4.7232 H   0  0  0  0  0  0  0  0  0  0  0  0
   -1.4794    3.7216   -3.4849 H   0  0  0  0  0  0  0  0  0  0  0  0
   -0.2384    0.9665   -3.0122 H   0  0  0  0  0  0  0  0  0  0  0  0
   -1.9613    1.3393   -2.9388 H   0  0  0  0  0  0  0  0  0  0  0  0
   -1.5388    2.9533   -1.0750 H   0  0  0  0  0  0  0  0  0  0  0  0
    0.1786    2.5929   -1.1372 H   0  0  0  0  0  0  0  0  0  0  0  0
   -0.9401    1.5282    0.7407 H   0  0  0  0  0  0  0  0  0  0  0  0
   -2.5935   -0.0336   -1.3148 H   0  0  0  0  0  0  0  0  0  0  0  0
   -3.1705    0.9809    0.0356 H   0  0  0  0  0  0  0  0  0  0  0  0
   -2.8817   -2.6240    1.2694 H   0  0  0  0  0  0  0  0  0  0  0  0
   -3.1860   -2.3033   -0.4349 H   0  0  0  0  0  0  0  0  0  0  0  0
   -4.9533   -0.6912    0.1161 H   0  0  0  0  0  0  0  0  0  0  0  0
   -5.2725   -2.2218    0.9141 H   0  0  0  0  0  0  0  0  0  0  0  0
   -4.6780   -0.8733    4.1684 H   0  0  0  0  0  0  0  0  0  0  0  0
   -3.3244   -1.6449    3.3271 H   0  0  0  0  0  0  0  0  0  0  0  0
   -4.9638   -2.3800    3.2715 H   0  0  0  0  0  0  0  0  0  0  0  0
   -0.8244   -2.1169   -0.4401 H   0  0  0  0  0  0  0  0  0  0  0  0
   -0.3316   -1.7015    1.2142 H   0  0  0  0  0  0  0  0  0  0  0  0
    0.2447   -0.3419   -1.3452 H   0  0  0  0  0  0  0  0  0  0  0  0
    1.0057    0.3615    1.4509 H   0  0  0  0  0  0  0  0  0  0  0  0
    4.4594    1.0455   -0.9248 H   0  0  0  0  0  0  0  0  0  0  0  0
    3.1332    1.9533   -0.1536 H   0  0  0  0  0  0  0  0  0  0  0  0
    4.7461    2.0032    0.5428 H   0  0  0  0  0  0  0  0  0  0  0  0
    5.5691    0.2683    1.8772 H   0  0  0  0  0  0  0  0  0  0  0  0
    4.6054   -1.1351    2.2720 H   0  0  0  0  0  0  0  0  0  0  0  0
    5.0862   -2.1145   -0.0038 H   0  0  0  0  0  0  0  0  0  0  0  0
    6.5723   -1.7385    0.8709 H   0  0  0  0  0  0  0  0  0  0  0  0
    6.0193   -0.6705   -0.4247 H   0  0  0  0  0  0  0  0  0  0  0  0
  1  2  1  0
  2  3  1  0
  3  4  1  0
  4  5  1  0
  5  6  1  0
  6  7  1  0
  7  8  1  0
  8  9  1  0
  9 10  1  0
  6 11  1  0
 11 12  1  0
 12 13  1  0
 13 14  1  0
 14 15  2  0
 14 16  2  0
 14 17  1  0
 17 18  1  0
 17 19  1  0
 19 20  1  0
 12  4  1  0
  1 21  1  0
  1 22  1  0
  1 23  1  0
  2 24  1  0
  2 25  1  0
  3 26  1  0
  3 27  1  0
  4 28  1  1
  5 29  1  0
  5 30  1  0
  7 31  1  0
  7 32  1  0
  8 33  1  0
  8 34  1  0
 10 35  1  0
 10 36  1  0
 10 37  1  0
 11 38  1  0
 11 39  1  0
 12 40  1  6
 13 41  1  0
 18 42  1  0
 18 43  1  0
 18 44  1  0
 19 45  1  0
 19 46  1  0
 20 47  1  0
 20 48  1  0
 20 49  1  0
M  END
>  <Unnamed: 0>  (198) 
1267

>  <ID>  (198) 
TRAIN_1267

>  <Canonical_Smiles>  (198) 
CCC[C@H]1CN(CCOC)C[C@@H]1NS(=O)(=O)N(C)CC

>  <Inhibition>  (198) 
49.9

>  <TDC_conf_true_inhibitor>  (198) 
0

>  <TDC_conf_non_inhibitor>  (198) 
1

>  <split>  (198) 
1

$$$$
198
     RDKit          3D

 56 59  0  0  0  0  0  0  0  0999 V2000
    7.2471    2.0873    0.3374 O   0  0  0  0  0  0  0  0  0  0  0  0
    6.7505    0.8169    0.3285 C   0  0  0  0  0  0  0  0  0  0  0  0
    7.5923   -0.2891    0.3535 C   0  0  0  0  0  0  0  0  0  0  0  0
    7.0374   -1.5678    0.3455 C   0  0  0  0  0  0  0  0  0  0  0  0
    5.6507   -1.7326    0.3185 C   0  0  0  0  0  0  0  0  0  0  0  0
    4.7964   -0.6191    0.2948 C   0  0  0  0  0  0  0  0  0  0  0  0
    5.3676    0.6631    0.2963 C   0  0  0  0  0  0  0  0  0  0  0  0
    3.2918   -0.8170    0.2714 C   0  0  0  0  0  0  0  0  0  0  0  0
    2.6148   -0.2972    1.5548 C   0  0  0  0  0  0  0  0  0  0  0  0
    1.2089    0.2609    1.3032 C   0  0  0  0  0  0  0  0  0  0  0  0
    0.5039   -0.5573    0.3186 N   0  0  0  0  0  0  0  0  0  0  0  0
    1.1357   -0.5244   -1.0079 C   0  0  0  0  0  0  0  0  0  0  0  0
    2.6367   -0.2026   -0.9703 C   0  0  0  0  0  0  0  0  0  0  0  0
   -0.9558   -0.3507    0.3208 C   0  0  0  0  0  0  0  0  0  0  0  0
   -1.6970   -1.3463   -0.5813 C   0  0  0  0  0  0  0  0  0  0  0  0
   -3.2211   -1.2773   -0.4025 C   0  0  0  0  0  0  0  0  0  0  0  0
   -3.7917    0.1465   -0.1344 C   0  0  0  0  0  0  0  0  0  0  0  0
   -5.1294    0.3028   -0.9122 C   0  0  0  0  0  0  0  0  0  0  0  0
   -6.0819    1.2763   -0.2234 C   0  0  0  0  0  0  0  0  0  0  0  0
   -6.4994    0.7999    1.0963 N   0  0  0  0  0  0  0  0  0  0  0  0
   -5.4892   -0.0045    1.7816 C   0  0  0  0  0  0  0  0  0  0  0  0
   -4.0601    0.3633    1.3859 C   0  0  0  0  0  0  0  0  0  0  0  0
   -2.7763    1.2010   -0.6345 C   0  0  0  0  0  0  0  0  0  0  0  0
   -1.3979    1.0996    0.0298 C   0  0  0  0  0  0  0  0  0  0  0  0
    8.2149    2.0367    0.3939 H   0  0  0  0  0  0  0  0  0  0  0  0
    8.6710   -0.1773    0.3770 H   0  0  0  0  0  0  0  0  0  0  0  0
    7.6847   -2.4423    0.3630 H   0  0  0  0  0  0  0  0  0  0  0  0
    5.2398   -2.7403    0.3168 H   0  0  0  0  0  0  0  0  0  0  0  0
    4.7399    1.5510    0.2795 H   0  0  0  0  0  0  0  0  0  0  0  0
    3.0974   -1.8986    0.2240 H   0  0  0  0  0  0  0  0  0  0  0  0
    2.5598   -1.1231    2.2769 H   0  0  0  0  0  0  0  0  0  0  0  0
    3.2073    0.4847    2.0434 H   0  0  0  0  0  0  0  0  0  0  0  0
    1.2727    1.3058    0.9720 H   0  0  0  0  0  0  0  0  0  0  0  0
    0.6762    0.2669    2.2630 H   0  0  0  0  0  0  0  0  0  0  0  0
    0.6586    0.2019   -1.6762 H   0  0  0  0  0  0  0  0  0  0  0  0
    1.0066   -1.5107   -1.4701 H   0  0  0  0  0  0  0  0  0  0  0  0
    2.7699    0.8861   -0.9714 H   0  0  0  0  0  0  0  0  0  0  0  0
    3.1118   -0.5753   -1.8858 H   0  0  0  0  0  0  0  0  0  0  0  0
   -1.2794   -0.5889    1.3431 H   0  0  0  0  0  0  0  0  0  0  0  0
   -1.3654   -2.3728   -0.3778 H   0  0  0  0  0  0  0  0  0  0  0  0
   -1.4618   -1.1474   -1.6352 H   0  0  0  0  0  0  0  0  0  0  0  0
   -3.5136   -1.9506    0.4125 H   0  0  0  0  0  0  0  0  0  0  0  0
   -3.6662   -1.7083   -1.3079 H   0  0  0  0  0  0  0  0  0  0  0  0
   -4.9411    0.6358   -1.9399 H   0  0  0  0  0  0  0  0  0  0  0  0
   -5.6385   -0.6673   -0.9982 H   0  0  0  0  0  0  0  0  0  0  0  0
   -5.6055    2.2593   -0.1283 H   0  0  0  0  0  0  0  0  0  0  0  0
   -6.9759    1.4154   -0.8414 H   0  0  0  0  0  0  0  0  0  0  0  0
   -6.7624    1.5997    1.6708 H   0  0  0  0  0  0  0  0  0  0  0  0
   -5.6135    0.1133    2.8636 H   0  0  0  0  0  0  0  0  0  0  0  0
   -5.6725   -1.0639    1.5656 H   0  0  0  0  0  0  0  0  0  0  0  0
   -3.3630   -0.2188    1.9984 H   0  0  0  0  0  0  0  0  0  0  0  0
   -3.8919    1.4153    1.6551 H   0  0  0  0  0  0  0  0  0  0  0  0
   -2.6429    1.0838   -1.7190 H   0  0  0  0  0  0  0  0  0  0  0  0
   -3.1658    2.2168   -0.4920 H   0  0  0  0  0  0  0  0  0  0  0  0
   -1.4036    1.6611    0.9728 H   0  0  0  0  0  0  0  0  0  0  0  0
   -0.6819    1.6203   -0.6167 H   0  0  0  0  0  0  0  0  0  0  0  0
  1  2  1  0
  2  3  2  0
  3  4  1  0
  4  5  2  0
  5  6  1  0
  6  7  2  0
  6  8  1  0
  8  9  1  0
  9 10  1  0
 10 11  1  0
 11 12  1  0
 12 13  1  0
 11 14  1  0
 14 15  1  0
 15 16  1  0
 16 17  1  0
 17 18  1  0
 18 19  1  0
 19 20  1  0
 20 21  1  0
 21 22  1  0
 17 23  1  0
 23 24  1  0
  7  2  1  0
 13  8  1  0
 24 14  1  0
 22 17  1  0
  1 25  1  0
  3 26  1  0
  4 27  1  0
  5 28  1  0
  7 29  1  0
  8 30  1  0
  9 31  1  0
  9 32  1  0
 10 33  1  0
 10 34  1  0
 12 35  1  0
 12 36  1  0
 13 37  1  0
 13 38  1  0
 14 39  1  0
 15 40  1  0
 15 41  1  0
 16 42  1  0
 16 43  1  0
 18 44  1  0
 18 45  1  0
 19 46  1  0
 19 47  1  0
 20 48  1  0
 21 49  1  0
 21 50  1  0
 22 51  1  0
 22 52  1  0
 23 53  1  0
 23 54  1  0
 24 55  1  0
 24 56  1  0
M  END
>  <Unnamed: 0>  (199) 
1192

>  <ID>  (199) 
TRAIN_1192

>  <Canonical_Smiles>  (199) 
Oc1cccc(c1)C2CCN(CC2)C3CCC4(CCNCC4)CC3

>  <Inhibition>  (199) 
25.5

>  <TDC_conf_true_inhibitor>  (199) 
0

>  <TDC_conf_non_inhibitor>  (199) 
1

>  <split>  (199) 
1

$$$$
199
     RDKit          3D

 58 60  0  0  0  0  0  0  0  0999 V2000
    8.0581    0.5378    0.0304 C   0  0  0  0  0  0  0  0  0  0  0  0
    7.1608    1.5765   -0.6319 C   0  0  0  0  0  0  0  0  0  0  0  0
    5.9116    0.9999   -1.3237 C   0  0  0  0  0  0  0  0  0  0  0  0
    6.2612    0.0615   -2.4758 C   0  0  0  0  0  0  0  0  0  0  0  0
    5.0324    0.3223   -0.3803 N   0  0  0  0  0  0  0  0  0  0  0  0
    4.2091    1.0263    0.4624 C   0  0  0  0  0  0  0  0  0  0  0  0
    4.0552    2.2388    0.4253 O   0  0  0  0  0  0  0  0  0  0  0  0
    3.6049    0.1929    1.3648 N   0  0  0  0  0  0  0  0  0  0  0  0
    2.5627    0.6878    2.2416 C   0  0  0  0  0  0  0  0  0  0  0  0
    1.2424    0.2203    1.7134 C   0  0  0  0  0  0  0  0  0  0  0  0
    0.0998    0.9936    1.4125 C   0  0  0  0  0  0  0  0  0  0  0  0
   -0.8472    0.0980    0.9531 C   0  0  0  0  0  0  0  0  0  0  0  0
   -2.2559    0.3515    0.5064 C   0  0  0  0  0  0  0  0  0  0  0  0
   -3.0993   -0.8474    0.3477 N   0  0  0  0  0  0  0  0  0  0  0  0
   -3.0802   -1.6876    1.5527 C   0  0  0  0  0  0  0  0  0  0  0  0
   -2.0169   -2.7861    1.4262 C   0  0  0  0  0  0  0  0  0  0  0  0
   -0.7952   -2.3984    0.5979 C   0  0  0  0  0  0  0  0  0  0  0  0
   -0.2293   -1.1246    0.9887 N   0  0  0  0  0  0  0  0  0  0  0  0
    1.0356   -1.0805    1.4545 N   0  0  0  0  0  0  0  0  0  0  0  0
   -4.4763   -0.5684   -0.1179 C   0  0  0  0  0  0  0  0  0  0  0  0
   -5.3058    0.3584    0.7932 C   0  0  0  0  0  0  0  0  0  0  0  0
   -6.7325    0.5201    0.2682 C   0  0  0  0  0  0  0  0  0  0  0  0
   -6.7503    1.0122   -1.1749 C   0  0  0  0  0  0  0  0  0  0  0  0
   -5.9233    0.1116   -2.0867 C   0  0  0  0  0  0  0  0  0  0  0  0
   -4.4931   -0.0503   -1.5709 C   0  0  0  0  0  0  0  0  0  0  0  0
    8.4555   -0.1763   -0.6974 H   0  0  0  0  0  0  0  0  0  0  0  0
    7.5209   -0.0182    0.8053 H   0  0  0  0  0  0  0  0  0  0  0  0
    8.9104    1.0315    0.5088 H   0  0  0  0  0  0  0  0  0  0  0  0
    7.7536    2.1347   -1.3682 H   0  0  0  0  0  0  0  0  0  0  0  0
    6.8530    2.3010    0.1328 H   0  0  0  0  0  0  0  0  0  0  0  0
    5.3516    1.8462   -1.7415 H   0  0  0  0  0  0  0  0  0  0  0  0
    5.3553   -0.2290   -3.0190 H   0  0  0  0  0  0  0  0  0  0  0  0
    6.7333   -0.8616   -2.1233 H   0  0  0  0  0  0  0  0  0  0  0  0
    6.9379    0.5487   -3.1858 H   0  0  0  0  0  0  0  0  0  0  0  0
    5.3473   -0.5623   -0.0079 H   0  0  0  0  0  0  0  0  0  0  0  0
    3.4139   -0.7411    1.0259 H   0  0  0  0  0  0  0  0  0  0  0  0
    2.5970    1.7788    2.3269 H   0  0  0  0  0  0  0  0  0  0  0  0
    2.7363    0.2534    3.2315 H   0  0  0  0  0  0  0  0  0  0  0  0
   -0.0162    2.0638    1.5160 H   0  0  0  0  0  0  0  0  0  0  0  0
   -2.7042    1.0431    1.2303 H   0  0  0  0  0  0  0  0  0  0  0  0
   -2.1837    0.8827   -0.4488 H   0  0  0  0  0  0  0  0  0  0  0  0
   -4.0404   -2.1961    1.7151 H   0  0  0  0  0  0  0  0  0  0  0  0
   -2.9173   -1.0904    2.4600 H   0  0  0  0  0  0  0  0  0  0  0  0
   -2.4678   -3.6741    0.9658 H   0  0  0  0  0  0  0  0  0  0  0  0
   -1.7016   -3.0814    2.4345 H   0  0  0  0  0  0  0  0  0  0  0  0
   -0.0199   -3.1678    0.7017 H   0  0  0  0  0  0  0  0  0  0  0  0
   -1.0347   -2.3292   -0.4700 H   0  0  0  0  0  0  0  0  0  0  0  0
   -4.9952   -1.5376   -0.1561 H   0  0  0  0  0  0  0  0  0  0  0  0
   -5.3460   -0.0388    1.8138 H   0  0  0  0  0  0  0  0  0  0  0  0
   -4.8478    1.3533    0.8518 H   0  0  0  0  0  0  0  0  0  0  0  0
   -7.2784    1.2251    0.9042 H   0  0  0  0  0  0  0  0  0  0  0  0
   -7.2574   -0.4410    0.3341 H   0  0  0  0  0  0  0  0  0  0  0  0
   -7.7837    1.0554   -1.5372 H   0  0  0  0  0  0  0  0  0  0  0  0
   -6.3532    2.0344   -1.2167 H   0  0  0  0  0  0  0  0  0  0  0  0
   -5.9039    0.5286   -3.0995 H   0  0  0  0  0  0  0  0  0  0  0  0
   -6.4008   -0.8742   -2.1565 H   0  0  0  0  0  0  0  0  0  0  0  0
   -3.9543   -0.7473   -2.2236 H   0  0  0  0  0  0  0  0  0  0  0  0
   -3.9881    0.9194   -1.6476 H   0  0  0  0  0  0  0  0  0  0  0  0
  1  2  1  0
  2  3  1  0
  3  4  1  0
  3  5  1  0
  5  6  1  0
  6  7  2  0
  6  8  1  0
  8  9  1  0
  9 10  1  0
 10 11  1  0
 11 12  2  0
 12 13  1  0
 13 14  1  0
 14 15  1  0
 15 16  1  0
 16 17  1  0
 17 18  1  0
 18 19  1  0
 14 20  1  0
 20 21  1  0
 21 22  1  0
 22 23  1  0
 23 24  1  0
 24 25  1  0
 19 10  2  0
 18 12  1  0
 25 20  1  0
  1 26  1  0
  1 27  1  0
  1 28  1  0
  2 29  1  0
  2 30  1  0
  3 31  1  0
  4 32  1  0
  4 33  1  0
  4 34  1  0
  5 35  1  0
  8 36  1  0
  9 37  1  0
  9 38  1  0
 11 39  1  0
 13 40  1  0
 13 41  1  0
 15 42  1  0
 15 43  1  0
 16 44  1  0
 16 45  1  0
 17 46  1  0
 17 47  1  0
 20 48  1  0
 21 49  1  0
 21 50  1  0
 22 51  1  0
 22 52  1  0
 23 53  1  0
 23 54  1  0
 24 55  1  0
 24 56  1  0
 25 57  1  0
 25 58  1  0
M  END
>  <Unnamed: 0>  (200) 
1195

>  <ID>  (200) 
TRAIN_1195

>  <Canonical_Smiles>  (200) 
CCC(C)NC(=O)NCc1cc2CN(CCCn2n1)C3CCCCC3

>  <Inhibition>  (200) 
16.7

>  <TDC_conf_true_inhibitor>  (200) 
0

>  <TDC_conf_non_inhibitor>  (200) 
1

>  <split>  (200) 
1

$$$$
200
     RDKit          3D

 57 60  0  0  0  0  0  0  0  0999 V2000
   -1.4957    2.7817    1.8786 C   0  0  0  0  0  0  0  0  0  0  0  0
   -1.9623    1.7095    1.0617 O   0  0  0  0  0  0  0  0  0  0  0  0
   -2.3875    2.0715   -0.1855 C   0  0  0  0  0  0  0  0  0  0  0  0
   -3.1034    3.2538   -0.4142 C   0  0  0  0  0  0  0  0  0  0  0  0
   -3.4465    3.6374   -1.7127 C   0  0  0  0  0  0  0  0  0  0  0  0
   -3.0701    2.8482   -2.7947 C   0  0  0  0  0  0  0  0  0  0  0  0
   -2.3786    1.6573   -2.5766 C   0  0  0  0  0  0  0  0  0  0  0  0
   -2.0768    1.2388   -1.2683 C   0  0  0  0  0  0  0  0  0  0  0  0
   -1.3744    0.0188   -1.1075 N   0  0  0  0  0  0  0  0  0  0  0  0
   -0.4147   -0.2995   -2.0228 N   0  0  0  0  0  0  0  0  0  0  0  0
    0.2417   -1.2857   -1.4123 C   0  0  0  0  0  0  0  0  0  0  0  0
    1.4793   -1.8942   -1.9645 C   0  0  0  0  0  0  0  0  0  0  0  0
    2.7951   -1.3205   -1.4107 C   0  0  0  0  0  0  0  0  0  0  0  0
    2.9901    0.1669   -1.7366 C   0  0  0  0  0  0  0  0  0  0  0  0
    4.3236    0.6791   -1.1859 C   0  0  0  0  0  0  0  0  0  0  0  0
    4.4258    0.4531    0.2624 N   0  0  0  0  0  0  0  0  0  0  0  0
    5.6870    0.9855    0.7766 C   0  0  0  0  0  0  0  0  0  0  0  0
    4.2971   -0.9732    0.5916 C   0  0  0  0  0  0  0  0  0  0  0  0
    2.9625   -1.5389    0.0997 C   0  0  0  0  0  0  0  0  0  0  0  0
   -0.3383   -1.7333   -0.2669 N   0  0  0  0  0  0  0  0  0  0  0  0
   -1.4295   -0.9864   -0.1455 C   0  0  0  0  0  0  0  0  0  0  0  0
   -2.5711   -1.3170    0.7914 C   0  0  0  0  0  0  0  0  0  0  0  0
   -3.9593   -0.8633    0.3429 C   0  0  0  0  0  0  0  0  0  0  0  0
   -2.2574   -0.9525    2.2498 C   0  0  0  0  0  0  0  0  0  0  0  0
   -2.5397   -2.2179    3.0251 C   0  0  0  0  0  0  0  0  0  0  0  0
   -2.1976   -3.2848    2.0198 C   0  0  0  0  0  0  0  0  0  0  0  0
   -2.6709   -2.7780    0.7707 O   0  0  0  0  0  0  0  0  0  0  0  0
   -2.3366    3.3121    2.3353 H   0  0  0  0  0  0  0  0  0  0  0  0
   -0.8536    3.4708    1.3194 H   0  0  0  0  0  0  0  0  0  0  0  0
   -0.8981    2.3476    2.6860 H   0  0  0  0  0  0  0  0  0  0  0  0
   -3.4032    3.8966    0.4080 H   0  0  0  0  0  0  0  0  0  0  0  0
   -3.9957    4.5609   -1.8795 H   0  0  0  0  0  0  0  0  0  0  0  0
   -3.3173    3.1547   -3.8081 H   0  0  0  0  0  0  0  0  0  0  0  0
   -2.0972    1.0463   -3.4333 H   0  0  0  0  0  0  0  0  0  0  0  0
    1.4766   -1.7874   -3.0572 H   0  0  0  0  0  0  0  0  0  0  0  0
    1.4520   -2.9740   -1.7685 H   0  0  0  0  0  0  0  0  0  0  0  0
    3.6043   -1.8724   -1.9110 H   0  0  0  0  0  0  0  0  0  0  0  0
    2.9633    0.3186   -2.8220 H   0  0  0  0  0  0  0  0  0  0  0  0
    2.1771    0.7659   -1.3083 H   0  0  0  0  0  0  0  0  0  0  0  0
    4.3898    1.7531   -1.3983 H   0  0  0  0  0  0  0  0  0  0  0  0
    5.1518    0.1912   -1.7165 H   0  0  0  0  0  0  0  0  0  0  0  0
    5.7611    2.0602    0.5767 H   0  0  0  0  0  0  0  0  0  0  0  0
    6.5578    0.4909    0.3314 H   0  0  0  0  0  0  0  0  0  0  0  0
    5.7407    0.8650    1.8642 H   0  0  0  0  0  0  0  0  0  0  0  0
    4.3437   -1.1076    1.6792 H   0  0  0  0  0  0  0  0  0  0  0  0
    5.1238   -1.5509    0.1569 H   0  0  0  0  0  0  0  0  0  0  0  0
    2.1488   -1.0540    0.6529 H   0  0  0  0  0  0  0  0  0  0  0  0
    2.9147   -2.6098    0.3307 H   0  0  0  0  0  0  0  0  0  0  0  0
   -4.1367   -1.1101   -0.7104 H   0  0  0  0  0  0  0  0  0  0  0  0
   -4.1295    0.2050    0.4815 H   0  0  0  0  0  0  0  0  0  0  0  0
   -4.7383   -1.3849    0.9128 H   0  0  0  0  0  0  0  0  0  0  0  0
   -2.8558   -0.1167    2.6256 H   0  0  0  0  0  0  0  0  0  0  0  0
   -1.2025   -0.6776    2.3767 H   0  0  0  0  0  0  0  0  0  0  0  0
   -1.9652   -2.2996    3.9514 H   0  0  0  0  0  0  0  0  0  0  0  0
   -3.6066   -2.2644    3.2736 H   0  0  0  0  0  0  0  0  0  0  0  0
   -1.1161   -3.4452    1.9481 H   0  0  0  0  0  0  0  0  0  0  0  0
   -2.6813   -4.2407    2.2374 H   0  0  0  0  0  0  0  0  0  0  0  0
  1  2  1  0
  2  3  1  0
  3  4  2  0
  4  5  1  0
  5  6  2  0
  6  7  1  0
  7  8  2  0
  8  9  1  0
  9 10  1  0
 10 11  2  0
 11 12  1  0
 12 13  1  0
 13 14  1  0
 14 15  1  0
 15 16  1  0
 16 17  1  0
 16 18  1  0
 18 19  1  0
 11 20  1  0
 20 21  2  0
 21 22  1  0
 22 23  1  0
 22 24  1  0
 24 25  1  0
 25 26  1  0
 26 27  1  0
  8  3  1  0
 21  9  1  0
 19 13  1  0
 27 22  1  0
  1 28  1  0
  1 29  1  0
  1 30  1  0
  4 31  1  0
  5 32  1  0
  6 33  1  0
  7 34  1  0
 12 35  1  0
 12 36  1  0
 13 37  1  0
 14 38  1  0
 14 39  1  0
 15 40  1  0
 15 41  1  0
 17 42  1  0
 17 43  1  0
 17 44  1  0
 18 45  1  0
 18 46  1  0
 19 47  1  0
 19 48  1  0
 23 49  1  0
 23 50  1  0
 23 51  1  0
 24 52  1  0
 24 53  1  0
 25 54  1  0
 25 55  1  0
 26 56  1  0
 26 57  1  0
M  END
>  <Unnamed: 0>  (201) 
1198

>  <ID>  (201) 
TRAIN_1198

>  <Canonical_Smiles>  (201) 
COc1ccccc1n2nc(CC3CCN(C)CC3)nc2C4(C)CCCO4

>  <Inhibition>  (201) 
34.3

>  <TDC_conf_true_inhibitor>  (201) 
0

>  <TDC_conf_non_inhibitor>  (201) 
1

>  <split>  (201) 
1

$$$$
201
     RDKit          3D

 41 42  0  0  0  0  0  0  0  0999 V2000
    4.2411   -0.1520   -1.2114 C   0  0  0  0  0  0  0  0  0  0  0  0
    4.2406   -0.2606    0.3145 C   0  0  0  0  0  0  0  0  0  0  0  0
    5.6703   -0.4674    0.8189 C   0  0  0  0  0  0  0  0  0  0  0  0
    3.6261    0.9841    0.9837 C   0  0  0  0  0  0  0  0  0  0  0  0
    2.2006    1.1400    0.7192 N   0  0  0  0  0  0  0  0  0  0  0  0
    1.7528    2.0274   -0.2329 C   0  0  0  0  0  0  0  0  0  0  0  0
    0.4461    2.1598   -0.4871 C   0  0  0  0  0  0  0  0  0  0  0  0
   -0.5561    1.4698    0.1419 N   0  0  0  0  0  0  0  0  0  0  0  0
   -0.2058    0.6190    1.0708 C   0  0  0  0  0  0  0  0  0  0  0  0
   -1.1346   -0.1194    1.7807 N   0  0  0  0  0  0  0  0  0  0  0  0
   -2.5173   -0.2612    1.3739 C   0  0  0  0  0  0  0  0  0  0  0  0
   -2.6456   -1.1953    0.1655 C   0  0  0  0  0  0  0  0  0  0  0  0
   -4.0325   -1.2077   -0.3811 C   0  0  0  0  0  0  0  0  0  0  0  0
   -5.1008   -2.0416   -0.1220 C   0  0  0  0  0  0  0  0  0  0  0  0
   -6.2004   -1.6748   -0.8508 N   0  0  0  0  0  0  0  0  0  0  0  0
   -5.8178   -0.6349   -1.5556 C   0  0  0  0  0  0  0  0  0  0  0  0
   -4.5136   -0.3138   -1.3088 N   0  0  0  0  0  0  0  0  0  0  0  0
   -3.7925    0.7746   -1.9231 C   0  0  0  0  0  0  0  0  0  0  0  0
    1.2862    0.3712    1.4294 C   0  0  0  0  0  0  0  0  0  0  0  0
    1.5514   -0.4723    2.2794 O   0  0  0  0  0  0  0  0  0  0  0  0
    4.7712    0.7461   -1.5461 H   0  0  0  0  0  0  0  0  0  0  0  0
    3.2213   -0.1146   -1.6065 H   0  0  0  0  0  0  0  0  0  0  0  0
    4.7322   -1.0213   -1.6620 H   0  0  0  0  0  0  0  0  0  0  0  0
    3.6554   -1.1469    0.5896 H   0  0  0  0  0  0  0  0  0  0  0  0
    6.3084    0.3864    0.5665 H   0  0  0  0  0  0  0  0  0  0  0  0
    5.6847   -0.5923    1.9068 H   0  0  0  0  0  0  0  0  0  0  0  0
    6.1139   -1.3651    0.3754 H   0  0  0  0  0  0  0  0  0  0  0  0
    4.1573    1.8936    0.6755 H   0  0  0  0  0  0  0  0  0  0  0  0
    3.7478    0.9036    2.0718 H   0  0  0  0  0  0  0  0  0  0  0  0
    2.4941    2.6097   -0.7708 H   0  0  0  0  0  0  0  0  0  0  0  0
    0.1182    2.8677   -1.2443 H   0  0  0  0  0  0  0  0  0  0  0  0
   -0.7396   -0.8705    2.3440 H   0  0  0  0  0  0  0  0  0  0  0  0
   -2.9448    0.7257    1.1604 H   0  0  0  0  0  0  0  0  0  0  0  0
   -3.0918   -0.6657    2.2158 H   0  0  0  0  0  0  0  0  0  0  0  0
   -1.9395   -0.9118   -0.6238 H   0  0  0  0  0  0  0  0  0  0  0  0
   -2.3613   -2.2126    0.4643 H   0  0  0  0  0  0  0  0  0  0  0  0
   -5.1360   -2.8865    0.5541 H   0  0  0  0  0  0  0  0  0  0  0  0
   -6.4398   -0.0858   -2.2507 H   0  0  0  0  0  0  0  0  0  0  0  0
   -2.9297    0.3653   -2.4542 H   0  0  0  0  0  0  0  0  0  0  0  0
   -3.4739    1.4677   -1.1413 H   0  0  0  0  0  0  0  0  0  0  0  0
   -4.4458    1.2931   -2.6297 H   0  0  0  0  0  0  0  0  0  0  0  0
  1  2  1  0
  2  3  1  0
  2  4  1  0
  4  5  1  0
  5  6  1  0
  6  7  2  0
  7  8  1  0
  8  9  2  0
  9 10  1  0
 10 11  1  0
 11 12  1  0
 12 13  1  0
 13 14  2  0
 14 15  1  0
 15 16  2  0
 16 17  1  0
 17 18  1  0
  9 19  1  0
 19 20  2  0
 19  5  1  0
 17 13  1  0
  1 21  1  0
  1 22  1  0
  1 23  1  0
  2 24  1  0
  3 25  1  0
  3 26  1  0
  3 27  1  0
  4 28  1  0
  4 29  1  0
  6 30  1  0
  7 31  1  0
 10 32  1  0
 11 33  1  0
 11 34  1  0
 12 35  1  0
 12 36  1  0
 14 37  1  0
 16 38  1  0
 18 39  1  0
 18 40  1  0
 18 41  1  0
M  END
>  <Unnamed: 0>  (202) 
1206

>  <ID>  (202) 
TRAIN_1206

>  <Canonical_Smiles>  (202) 
CC(C)CN1C=CN=C(NCCc2cncn2C)C1=O

>  <Inhibition>  (202) 
64.6

>  <TDC_conf_true_inhibitor>  (202) 
1

>  <TDC_conf_non_inhibitor>  (202) 
0

>  <split>  (202) 
1

$$$$
202
     RDKit          3D

 67 71  0  0  0  0  0  0  0  0999 V2000
   -4.6247   -2.3827   -1.1891 C   0  0  0  0  0  0  0  0  0  0  0  0
   -5.2376   -1.1027   -0.6023 C   0  0  0  0  0  0  0  0  0  0  0  0
   -6.2427   -0.5412   -1.6183 C   0  0  0  0  0  0  0  0  0  0  0  0
   -4.1746   -0.0317   -0.3019 C   0  0  0  0  0  0  0  0  0  0  0  0
   -3.3053   -0.3857    0.9151 C   0  0  0  0  0  0  0  0  0  0  0  0
   -4.2224   -0.7129    2.0974 C   0  0  0  0  0  0  0  0  0  0  0  0
   -5.2326   -1.7822    1.7164 C   0  0  0  0  0  0  0  0  0  0  0  0
   -5.9961   -1.3984    0.5784 O   0  0  0  0  0  0  0  0  0  0  0  0
   -2.3757    0.7760    1.2787 C   0  0  0  0  0  0  0  0  0  0  0  0
   -2.6200    1.9202    0.8888 O   0  0  0  0  0  0  0  0  0  0  0  0
   -1.2920    0.5014    2.1103 N   0  0  0  0  0  0  0  0  0  0  0  0
   -0.7399   -0.8474    2.2895 C   0  0  0  0  0  0  0  0  0  0  0  0
    0.4986   -0.9142    3.1880 C   0  0  0  0  0  0  0  0  0  0  0  0
    1.7148   -0.5540    2.5337 O   0  0  0  0  0  0  0  0  0  0  0  0
    1.8154    0.5979    1.8029 C   0  0  0  0  0  0  0  0  0  0  0  0
    0.8586    1.6143    1.7003 C   0  0  0  0  0  0  0  0  0  0  0  0
   -0.4294    1.6177    2.4771 C   0  0  0  0  0  0  0  0  0  0  0  0
    1.1051    2.6994    0.8301 C   0  0  0  0  0  0  0  0  0  0  0  0
    2.2926    2.8168    0.0898 C   0  0  0  0  0  0  0  0  0  0  0  0
    3.2541    1.8135    0.2388 C   0  0  0  0  0  0  0  0  0  0  0  0
    3.0089    0.7165    1.0695 C   0  0  0  0  0  0  0  0  0  0  0  0
    3.9848   -0.2320    1.2473 O   0  0  0  0  0  0  0  0  0  0  0  0
    4.2634   -0.9771    0.0558 C   0  0  0  0  0  0  0  0  0  0  0  0
    3.9695   -2.4528    0.3256 C   0  0  0  0  0  0  0  0  0  0  0  0
    4.3468   -3.3174   -0.8389 C   0  0  0  0  0  0  0  0  0  0  0  0
    3.5508   -3.7379   -1.8863 C   0  0  0  0  0  0  0  0  0  0  0  0
    4.2658   -4.5441   -2.8193 C   0  0  0  0  0  0  0  0  0  0  0  0
    5.5815   -4.7118   -2.4535 C   0  0  0  0  0  0  0  0  0  0  0  0
    5.9462   -3.9154   -0.9857 S   0  0  0  0  0  0  0  0  0  0  0  0
    2.5137    3.9614   -0.8045 C   0  0  0  0  0  0  0  0  0  0  0  0
    2.8479    3.7903   -2.1534 C   0  0  0  0  0  0  0  0  0  0  0  0
    3.0274    4.8993   -2.9798 C   0  0  0  0  0  0  0  0  0  0  0  0
    2.8693    6.1606   -2.4308 C   0  0  0  0  0  0  0  0  0  0  0  0
    2.5564    6.3800   -1.1384 N   0  0  0  0  0  0  0  0  0  0  0  0
    2.3863    5.2809   -0.3625 C   0  0  0  0  0  0  0  0  0  0  0  0
   -3.8689   -2.8255   -0.5324 H   0  0  0  0  0  0  0  0  0  0  0  0
   -5.3954   -3.1484   -1.3317 H   0  0  0  0  0  0  0  0  0  0  0  0
   -4.1501   -2.1876   -2.1572 H   0  0  0  0  0  0  0  0  0  0  0  0
   -5.7571   -0.2732   -2.5607 H   0  0  0  0  0  0  0  0  0  0  0  0
   -6.7429    0.3493   -1.2186 H   0  0  0  0  0  0  0  0  0  0  0  0
   -7.0323   -1.2706   -1.8295 H   0  0  0  0  0  0  0  0  0  0  0  0
   -4.6862    0.9178   -0.0954 H   0  0  0  0  0  0  0  0  0  0  0  0
   -3.5434    0.1438   -1.1808 H   0  0  0  0  0  0  0  0  0  0  0  0
   -2.6961   -1.2578    0.6553 H   0  0  0  0  0  0  0  0  0  0  0  0
   -3.6514   -1.0405    2.9719 H   0  0  0  0  0  0  0  0  0  0  0  0
   -4.7593    0.1973    2.3983 H   0  0  0  0  0  0  0  0  0  0  0  0
   -4.7475   -2.7459    1.5332 H   0  0  0  0  0  0  0  0  0  0  0  0
   -5.9331   -1.9307    2.5435 H   0  0  0  0  0  0  0  0  0  0  0  0
   -0.4986   -1.2357    1.2912 H   0  0  0  0  0  0  0  0  0  0  0  0
   -1.5247   -1.4789    2.7168 H   0  0  0  0  0  0  0  0  0  0  0  0
    0.6331   -1.9617    3.4838 H   0  0  0  0  0  0  0  0  0  0  0  0
    0.3920   -0.3543    4.1239 H   0  0  0  0  0  0  0  0  0  0  0  0
   -0.9573    2.5693    2.3433 H   0  0  0  0  0  0  0  0  0  0  0  0
   -0.2220    1.5767    3.5518 H   0  0  0  0  0  0  0  0  0  0  0  0
    0.3364    3.4670    0.7185 H   0  0  0  0  0  0  0  0  0  0  0  0
    4.2065    1.8894   -0.2793 H   0  0  0  0  0  0  0  0  0  0  0  0
    5.3247   -0.8294   -0.1766 H   0  0  0  0  0  0  0  0  0  0  0  0
    3.6881   -0.6344   -0.8174 H   0  0  0  0  0  0  0  0  0  0  0  0
    2.8964   -2.5721    0.5341 H   0  0  0  0  0  0  0  0  0  0  0  0
    4.4810   -2.7787    1.2406 H   0  0  0  0  0  0  0  0  0  0  0  0
    2.5043   -3.4763   -1.9847 H   0  0  0  0  0  0  0  0  0  0  0  0
    3.8401   -4.9768   -3.7169 H   0  0  0  0  0  0  0  0  0  0  0  0
    6.3462   -5.2645   -2.9795 H   0  0  0  0  0  0  0  0  0  0  0  0
    2.9500    2.7915   -2.5739 H   0  0  0  0  0  0  0  0  0  0  0  0
    3.2727    4.7801   -4.0286 H   0  0  0  0  0  0  0  0  0  0  0  0
    2.9933    7.0553   -3.0351 H   0  0  0  0  0  0  0  0  0  0  0  0
    2.1366    5.5008    0.6728 H   0  0  0  0  0  0  0  0  0  0  0  0
  1  2  1  0
  2  3  1  0
  2  4  1  0
  4  5  1  0
  5  6  1  0
  6  7  1  0
  7  8  1  0
  5  9  1  0
  9 10  2  0
  9 11  1  0
 11 12  1  0
 12 13  1  0
 13 14  1  0
 14 15  1  0
 15 16  2  0
 16 17  1  0
 16 18  1  0
 18 19  2  0
 19 20  1  0
 20 21  2  0
 21 22  1  0
 22 23  1  0
 23 24  1  0
 24 25  1  0
 25 26  2  0
 26 27  1  0
 27 28  2  0
 28 29  1  0
 19 30  1  0
 30 31  2  0
 31 32  1  0
 32 33  2  0
 33 34  1  0
 34 35  2  0
  8  2  1  0
 17 11  1  0
 21 15  1  0
 29 25  1  0
 35 30  1  0
  1 36  1  0
  1 37  1  0
  1 38  1  0
  3 39  1  0
  3 40  1  0
  3 41  1  0
  4 42  1  0
  4 43  1  0
  5 44  1  0
  6 45  1  0
  6 46  1  0
  7 47  1  0
  7 48  1  0
 12 49  1  0
 12 50  1  0
 13 51  1  0
 13 52  1  0
 17 53  1  0
 17 54  1  0
 18 55  1  0
 20 56  1  0
 23 57  1  0
 23 58  1  0
 24 59  1  0
 24 60  1  0
 26 61  1  0
 27 62  1  0
 28 63  1  0
 31 64  1  0
 32 65  1  0
 33 66  1  0
 35 67  1  0
M  END
>  <Unnamed: 0>  (203) 
1208

>  <ID>  (203) 
TRAIN_1208

>  <Canonical_Smiles>  (203) 
CC1(C)CC(CCO1)C(=O)N2CCOc3c(C2)cc(cc3OCCc4cccs4)c5cccnc5

>  <Inhibition>  (203) 
80.4

>  <TDC_conf_true_inhibitor>  (203) 
1

>  <TDC_conf_non_inhibitor>  (203) 
0

>  <split>  (203) 
1

$$$$
203
     RDKit          3D

 34 37  0  0  0  0  0  0  0  0999 V2000
   -6.1795    1.6208   -1.6848 F   0  0  0  0  0  0  0  0  0  0  0  0
   -5.4259    0.5854   -1.2869 C   0  0  0  0  0  0  0  0  0  0  0  0
   -4.0400    0.7394   -1.2371 C   0  0  0  0  0  0  0  0  0  0  0  0
   -3.2731   -0.3565   -0.8185 C   0  0  0  0  0  0  0  0  0  0  0  0
   -1.9120   -0.4694   -0.6823 N   0  0  0  0  0  0  0  0  0  0  0  0
   -1.7146   -1.6920   -0.2600 C   0  0  0  0  0  0  0  0  0  0  0  0
   -0.2118   -2.4465    0.1064 S   0  0  0  0  0  0  0  0  0  0  0  0
    0.9630   -1.1124   -0.2998 C   0  0  0  0  0  0  0  0  0  0  0  0
    1.0002   -0.0225    0.7738 C   0  0  0  0  0  0  0  0  0  0  0  0
    2.0313    0.9549    0.5166 N   0  0  0  0  0  0  0  0  0  0  0  0
    1.9060    2.1536   -0.1431 C   0  0  0  0  0  0  0  0  0  0  0  0
    0.8735    2.6303   -0.5921 O   0  0  0  0  0  0  0  0  0  0  0  0
    3.1473    2.8015   -0.2572 O   0  0  0  0  0  0  0  0  0  0  0  0
    3.9971    1.8954    0.3405 C   0  0  0  0  0  0  0  0  0  0  0  0
    5.3595    2.0173    0.4824 C   0  0  0  0  0  0  0  0  0  0  0  0
    6.0228    0.9615    1.1096 C   0  0  0  0  0  0  0  0  0  0  0  0
    5.2828   -0.1431    1.5487 C   0  0  0  0  0  0  0  0  0  0  0  0
    3.9401   -0.2689    1.4096 N   0  0  0  0  0  0  0  0  0  0  0  0
    3.3564    0.7736    0.8090 C   0  0  0  0  0  0  0  0  0  0  0  0
   -2.8792   -2.3859   -0.1159 N   0  0  0  0  0  0  0  0  0  0  0  0
   -3.9083   -1.5489   -0.4689 C   0  0  0  0  0  0  0  0  0  0  0  0
   -5.2935   -1.7210   -0.5127 C   0  0  0  0  0  0  0  0  0  0  0  0
   -6.0368   -0.6160   -0.9332 C   0  0  0  0  0  0  0  0  0  0  0  0
   -7.3718   -0.7257   -0.9940 F   0  0  0  0  0  0  0  0  0  0  0  0
   -3.5714    1.6765   -1.5127 H   0  0  0  0  0  0  0  0  0  0  0  0
    1.9502   -1.5792   -0.3886 H   0  0  0  0  0  0  0  0  0  0  0  0
    0.7322   -0.6882   -1.2836 H   0  0  0  0  0  0  0  0  0  0  0  0
    0.0435    0.5094    0.8128 H   0  0  0  0  0  0  0  0  0  0  0  0
    1.1775   -0.4524    1.7673 H   0  0  0  0  0  0  0  0  0  0  0  0
    5.8912    2.8900    0.1220 H   0  0  0  0  0  0  0  0  0  0  0  0
    7.0982    0.9908    1.2556 H   0  0  0  0  0  0  0  0  0  0  0  0
    5.7757   -0.9793    2.0390 H   0  0  0  0  0  0  0  0  0  0  0  0
   -2.9514   -3.3428    0.1960 H   0  0  0  0  0  0  0  0  0  0  0  0
   -5.7796   -2.6498   -0.2400 H   0  0  0  0  0  0  0  0  0  0  0  0
  1  2  1  0
  2  3  2  0
  3  4  1  0
  4  5  1  0
  5  6  2  0
  6  7  1  0
  7  8  1  0
  8  9  1  0
  9 10  1  0
 10 11  1  0
 11 12  2  0
 11 13  1  0
 13 14  1  0
 14 15  2  0
 15 16  1  0
 16 17  2  0
 17 18  1  0
 18 19  2  0
  6 20  1  0
 20 21  1  0
 21 22  1  0
 22 23  2  0
 23 24  1  0
 23  2  1  0
 21  4  2  0
 19 10  1  0
 19 14  1  0
  3 25  1  0
  8 26  1  0
  8 27  1  0
  9 28  1  0
  9 29  1  0
 15 30  1  0
 16 31  1  0
 17 32  1  0
 20 33  1  0
 22 34  1  0
M  END
>  <Unnamed: 0>  (204) 
1210

>  <ID>  (204) 
TRAIN_1210

>  <Canonical_Smiles>  (204) 
Fc1cc2nc(SCCN3C(=O)Oc4cccnc34)[nH]c2cc1F

>  <Inhibition>  (204) 
37.1

>  <TDC_conf_true_inhibitor>  (204) 
1

>  <TDC_conf_non_inhibitor>  (204) 
0

>  <split>  (204) 
1

$$$$
204
     RDKit          3D

 30 31  0  0  0  0  0  0  0  0999 V2000
    3.2174    1.9959    0.9062 Cl  0  0  0  0  0  0  0  0  0  0  0  0
    3.7426    0.9584   -0.3711 C   0  0  0  0  0  0  0  0  0  0  0  0
    5.0713    1.1207   -0.7891 C   0  0  0  0  0  0  0  0  0  0  0  0
    5.6030    0.3238   -1.8039 C   0  0  0  0  0  0  0  0  0  0  0  0
    4.8104   -0.6448   -2.4101 C   0  0  0  0  0  0  0  0  0  0  0  0
    3.4862   -0.8145   -2.0023 C   0  0  0  0  0  0  0  0  0  0  0  0
    2.9399   -0.0147   -0.9828 C   0  0  0  0  0  0  0  0  0  0  0  0
    1.5253   -0.2940   -0.6525 C   0  0  0  0  0  0  0  0  0  0  0  0
    0.8156    0.4098    0.1681 N   0  0  0  0  0  0  0  0  0  0  0  0
   -0.4751   -0.1347    0.2371 O   0  0  0  0  0  0  0  0  0  0  0  0
   -1.3014    0.7519    0.9926 C   0  0  0  0  0  0  0  0  0  0  0  0
   -2.6860    0.1579    1.0868 C   0  0  0  0  0  0  0  0  0  0  0  0
   -3.1486   -0.3174    2.3264 C   0  0  0  0  0  0  0  0  0  0  0  0
   -4.4207   -0.8785    2.4471 C   0  0  0  0  0  0  0  0  0  0  0  0
   -5.2485   -0.9767    1.3332 C   0  0  0  0  0  0  0  0  0  0  0  0
   -4.8023   -0.5181    0.0939 C   0  0  0  0  0  0  0  0  0  0  0  0
   -3.5257    0.0482   -0.0387 C   0  0  0  0  0  0  0  0  0  0  0  0
   -3.1146    0.5079   -1.3365 C   0  0  0  0  0  0  0  0  0  0  0  0
   -2.8122    0.8878   -2.3912 N   0  0  0  0  0  0  0  0  0  0  0  0
    5.7024    1.8746   -0.3221 H   0  0  0  0  0  0  0  0  0  0  0  0
    6.6344    0.4614   -2.1193 H   0  0  0  0  0  0  0  0  0  0  0  0
    5.2203   -1.2665   -3.2032 H   0  0  0  0  0  0  0  0  0  0  0  0
    2.8837   -1.5748   -2.4964 H   0  0  0  0  0  0  0  0  0  0  0  0
    1.0650   -1.1604   -1.1655 H   0  0  0  0  0  0  0  0  0  0  0  0
   -1.3451    1.7353    0.5094 H   0  0  0  0  0  0  0  0  0  0  0  0
   -0.8674    0.8865    1.9912 H   0  0  0  0  0  0  0  0  0  0  0  0
   -2.5137   -0.2580    3.2088 H   0  0  0  0  0  0  0  0  0  0  0  0
   -4.7623   -1.2444    3.4129 H   0  0  0  0  0  0  0  0  0  0  0  0
   -6.2383   -1.4156    1.4282 H   0  0  0  0  0  0  0  0  0  0  0  0
   -5.4555   -0.6073   -0.7716 H   0  0  0  0  0  0  0  0  0  0  0  0
  1  2  1  0
  2  3  2  0
  3  4  1  0
  4  5  2  0
  5  6  1  0
  6  7  2  0
  7  8  1  0
  8  9  2  0
  9 10  1  0
 10 11  1  0
 11 12  1  0
 12 13  2  0
 13 14  1  0
 14 15  2  0
 15 16  1  0
 16 17  2  0
 17 18  1  0
 18 19  3  0
  7  2  1  0
 17 12  1  0
  3 20  1  0
  4 21  1  0
  5 22  1  0
  6 23  1  0
  8 24  1  0
 11 25  1  0
 11 26  1  0
 13 27  1  0
 14 28  1  0
 15 29  1  0
 16 30  1  0
M  END
>  <Unnamed: 0>  (205) 
1212

>  <ID>  (205) 
TRAIN_1212

>  <Canonical_Smiles>  (205) 
Clc1ccccc1\C=N\OCc2ccccc2C#N

>  <Inhibition>  (205) 
0.5

>  <TDC_conf_true_inhibitor>  (205) 
0

>  <TDC_conf_non_inhibitor>  (205) 
1

>  <split>  (205) 
1

$$$$
205
     RDKit          3D

 34 35  0  0  0  0  0  0  0  0999 V2000
   -3.7922    2.3541    0.9810 C   0  0  0  0  0  0  0  0  0  0  0  0
   -3.3581    1.1073    0.3290 C   0  0  0  0  0  0  0  0  0  0  0  0
   -2.2913    1.1912   -0.5204 O   0  0  0  0  0  0  0  0  0  0  0  0
   -2.1074   -0.0953   -0.9596 C   0  0  0  0  0  0  0  0  0  0  0  0
   -1.0068   -0.3138   -1.9259 C   0  0  0  0  0  0  0  0  0  0  0  0
    0.2603   -0.5263   -1.2390 N   0  0  0  0  0  0  0  0  0  0  0  0
    0.9326    0.3697   -0.4555 C   0  0  0  0  0  0  0  0  0  0  0  0
    2.1057   -0.2423   -0.0683 C   0  0  0  0  0  0  0  0  0  0  0  0
    3.1650    0.3143    0.8214 C   0  0  0  0  0  0  0  0  0  0  0  0
    4.1896    1.1573    0.0655 C   0  0  0  0  0  0  0  0  0  0  0  0
    5.2010    1.6193    0.9543 O   0  0  0  0  0  0  0  0  0  0  0  0
    2.0765   -1.5220   -0.7099 C   0  0  0  0  0  0  0  0  0  0  0  0
    0.9574   -1.6619   -1.4487 N   0  0  0  0  0  0  0  0  0  0  0  0
    3.1282   -2.6011   -0.6129 C   0  0  0  0  0  0  0  0  0  0  0  0
    4.3839   -2.0800   -0.7251 F   0  0  0  0  0  0  0  0  0  0  0  0
    3.0907   -3.2349    0.5908 F   0  0  0  0  0  0  0  0  0  0  0  0
    3.0247   -3.5604   -1.5694 F   0  0  0  0  0  0  0  0  0  0  0  0
   -2.9809   -0.9577   -0.4767 N   0  0  0  0  0  0  0  0  0  0  0  0
   -3.7775   -0.2055    0.3555 C   0  0  0  0  0  0  0  0  0  0  0  0
   -4.8879   -0.8203    1.1117 C   0  0  0  0  0  0  0  0  0  0  0  0
   -2.9760    2.7814    1.5717 H   0  0  0  0  0  0  0  0  0  0  0  0
   -4.6394    2.1771    1.6505 H   0  0  0  0  0  0  0  0  0  0  0  0
   -4.0986    3.0908    0.2322 H   0  0  0  0  0  0  0  0  0  0  0  0
   -1.2105   -1.1922   -2.5474 H   0  0  0  0  0  0  0  0  0  0  0  0
   -0.8732    0.5508   -2.5846 H   0  0  0  0  0  0  0  0  0  0  0  0
    0.5203    1.3439   -0.2262 H   0  0  0  0  0  0  0  0  0  0  0  0
    2.7064    0.9249    1.6099 H   0  0  0  0  0  0  0  0  0  0  0  0
    3.6781   -0.4974    1.3522 H   0  0  0  0  0  0  0  0  0  0  0  0
    3.7126    2.0338   -0.3855 H   0  0  0  0  0  0  0  0  0  0  0  0
    4.6680    0.5886   -0.7392 H   0  0  0  0  0  0  0  0  0  0  0  0
    5.7341    0.8486    1.2171 H   0  0  0  0  0  0  0  0  0  0  0  0
   -4.7389   -0.6875    2.1877 H   0  0  0  0  0  0  0  0  0  0  0  0
   -5.8417   -0.3613    0.8338 H   0  0  0  0  0  0  0  0  0  0  0  0
   -4.9548   -1.8934    0.9077 H   0  0  0  0  0  0  0  0  0  0  0  0
  1  2  1  0
  2  3  1  0
  3  4  1  0
  4  5  1  0
  5  6  1  0
  6  7  1  0
  7  8  2  0
  8  9  1  0
  9 10  1  0
 10 11  1  0
  8 12  1  0
 12 13  2  0
 12 14  1  0
 14 15  1  0
 14 16  1  0
 14 17  1  0
  4 18  2  0
 18 19  1  0
 19 20  1  0
 19  2  2  0
 13  6  1  0
  1 21  1  0
  1 22  1  0
  1 23  1  0
  5 24  1  0
  5 25  1  0
  7 26  1  0
  9 27  1  0
  9 28  1  0
 10 29  1  0
 10 30  1  0
 11 31  1  0
 20 32  1  0
 20 33  1  0
 20 34  1  0
M  END
>  <Unnamed: 0>  (206) 
1216

>  <ID>  (206) 
TRAIN_1216

>  <Canonical_Smiles>  (206) 
Cc1oc(Cn2cc(CCO)c(n2)C(F)(F)F)nc1C

>  <Inhibition>  (206) 
15.3

>  <TDC_conf_true_inhibitor>  (206) 
0

>  <TDC_conf_non_inhibitor>  (206) 
1

>  <split>  (206) 
1

$$$$
206
     RDKit          3D

 34 37  0  0  0  0  0  0  0  0999 V2000
   -6.4782    1.2796   -0.3145 F   0  0  0  0  0  0  0  0  0  0  0  0
   -5.1938    0.9137   -0.2178 C   0  0  0  0  0  0  0  0  0  0  0  0
   -4.2061    1.7294   -0.7482 C   0  0  0  0  0  0  0  0  0  0  0  0
   -2.8630    1.3492   -0.6477 C   0  0  0  0  0  0  0  0  0  0  0  0
   -2.5009    0.1444   -0.0146 C   0  0  0  0  0  0  0  0  0  0  0  0
   -3.5219   -0.6615    0.5142 C   0  0  0  0  0  0  0  0  0  0  0  0
   -4.8639   -0.2764    0.4119 C   0  0  0  0  0  0  0  0  0  0  0  0
   -1.1166   -0.2355    0.0861 N   0  0  0  0  0  0  0  0  0  0  0  0
   -0.0448    0.5947   -0.2036 C   0  0  0  0  0  0  0  0  0  0  0  0
    1.1398   -0.0801    0.0028 C   0  0  0  0  0  0  0  0  0  0  0  0
    2.4231    0.5483   -0.2335 C   0  0  0  0  0  0  0  0  0  0  0  0
    2.9031    1.5214    0.6502 C   0  0  0  0  0  0  0  0  0  0  0  0
    4.1397    2.1268    0.4195 C   0  0  0  0  0  0  0  0  0  0  0  0
    4.8978    1.7640   -0.6935 C   0  0  0  0  0  0  0  0  0  0  0  0
    4.4216    0.7967   -1.5781 C   0  0  0  0  0  0  0  0  0  0  0  0
    3.1853    0.1895   -1.3506 C   0  0  0  0  0  0  0  0  0  0  0  0
    0.8110   -1.3887    0.4409 C   0  0  0  0  0  0  0  0  0  0  0  0
    1.4769   -2.5483    0.8232 C   0  0  0  0  0  0  0  0  0  0  0  0
    3.1734   -2.5879    0.8593 Cl  0  0  0  0  0  0  0  0  0  0  0  0
    0.8336   -3.6658    1.1835 N   0  0  0  0  0  0  0  0  0  0  0  0
   -0.5014   -3.6144    1.1605 C   0  0  0  0  0  0  0  0  0  0  0  0
   -1.2760   -2.5728    0.8280 N   0  0  0  0  0  0  0  0  0  0  0  0
   -0.5823   -1.4666    0.4814 C   0  0  0  0  0  0  0  0  0  0  0  0
   -4.4843    2.6555   -1.2420 H   0  0  0  0  0  0  0  0  0  0  0  0
   -2.1326    2.0135   -1.0988 H   0  0  0  0  0  0  0  0  0  0  0  0
   -3.3200   -1.5909    1.0357 H   0  0  0  0  0  0  0  0  0  0  0  0
   -5.6496   -0.9011    0.8256 H   0  0  0  0  0  0  0  0  0  0  0  0
   -0.1881    1.6173   -0.5212 H   0  0  0  0  0  0  0  0  0  0  0  0
    2.3234    1.8087    1.5241 H   0  0  0  0  0  0  0  0  0  0  0  0
    4.5135    2.8787    1.1097 H   0  0  0  0  0  0  0  0  0  0  0  0
    5.8621    2.2337   -0.8704 H   0  0  0  0  0  0  0  0  0  0  0  0
    5.0144    0.5129   -2.4438 H   0  0  0  0  0  0  0  0  0  0  0  0
    2.8255   -0.5636   -2.0476 H   0  0  0  0  0  0  0  0  0  0  0  0
   -1.0207   -4.5244    1.4469 H   0  0  0  0  0  0  0  0  0  0  0  0
  1  2  1  0
  2  3  2  0
  3  4  1  0
  4  5  2  0
  5  6  1  0
  6  7  2  0
  5  8  1  0
  8  9  1  0
  9 10  2  0
 10 11  1  0
 11 12  2  0
 12 13  1  0
 13 14  2  0
 14 15  1  0
 15 16  2  0
 10 17  1  0
 17 18  2  0
 18 19  1  0
 18 20  1  0
 20 21  2  0
 21 22  1  0
 22 23  2  0
  7  2  1  0
 23  8  1  0
 16 11  1  0
 23 17  1  0
  3 24  1  0
  4 25  1  0
  6 26  1  0
  7 27  1  0
  9 28  1  0
 12 29  1  0
 13 30  1  0
 14 31  1  0
 15 32  1  0
 16 33  1  0
 21 34  1  0
M  END
>  <Unnamed: 0>  (207) 
1221

>  <ID>  (207) 
TRAIN_1221

>  <Canonical_Smiles>  (207) 
Fc1ccc(cc1)n2cc(c3ccccc3)c4c(Cl)ncnc24

>  <Inhibition>  (207) 
16.7

>  <TDC_conf_true_inhibitor>  (207) 
0

>  <TDC_conf_non_inhibitor>  (207) 
1

>  <split>  (207) 
1

$$$$
207
     RDKit          3D

 34 37  0  0  0  0  0  0  0  0999 V2000
    2.6158   -0.6679    0.2122 C   0  0  0  0  0  0  0  0  0  0  0  0
    2.7500    0.0227    1.5434 C   0  0  0  0  0  0  0  0  0  0  0  0
    1.9154    1.0885    1.8796 C   0  0  0  0  0  0  0  0  0  0  0  0
    2.0710    1.7032    3.1184 C   0  0  0  0  0  0  0  0  0  0  0  0
    3.0530    1.2452    3.9872 C   0  0  0  0  0  0  0  0  0  0  0  0
    3.8436    0.1850    3.5791 C   0  0  0  0  0  0  0  0  0  0  0  0
    3.7168   -0.4326    2.3834 N   0  0  0  0  0  0  0  0  0  0  0  0
    1.3633   -1.4011    0.1240 N   0  0  0  0  0  0  0  0  0  0  0  0
    1.0896   -2.6212    0.6700 C   0  0  0  0  0  0  0  0  0  0  0  0
   -0.2003   -2.9115    0.2965 C   0  0  0  0  0  0  0  0  0  0  0  0
   -0.6323   -1.8070   -0.4806 C   0  0  0  0  0  0  0  0  0  0  0  0
   -1.8616   -1.7840   -1.0369 N   0  0  0  0  0  0  0  0  0  0  0  0
   -2.4644   -0.8353   -1.8744 C   0  0  0  0  0  0  0  0  0  0  0  0
   -3.2693   -1.3597   -2.8348 N   0  0  0  0  0  0  0  0  0  0  0  0
   -3.8748   -0.5370   -3.7007 C   0  0  0  0  0  0  0  0  0  0  0  0
   -3.8200    0.7929   -3.7267 N   0  0  0  0  0  0  0  0  0  0  0  0
   -3.0771    1.3327   -2.7309 C   0  0  0  0  0  0  0  0  0  0  0  0
   -2.9120    2.7356   -2.5303 C   0  0  0  0  0  0  0  0  0  0  0  0
   -2.1471    3.0200   -1.4256 C   0  0  0  0  0  0  0  0  0  0  0  0
   -1.6415    1.6023   -0.6264 S   0  0  0  0  0  0  0  0  0  0  0  0
   -2.3956    0.5659   -1.7838 C   0  0  0  0  0  0  0  0  0  0  0  0
    0.3417   -0.9028   -0.5997 N   0  0  0  0  0  0  0  0  0  0  0  0
    2.6559    0.0588   -0.6069 H   0  0  0  0  0  0  0  0  0  0  0  0
    3.4255   -1.3908    0.0609 H   0  0  0  0  0  0  0  0  0  0  0  0
    1.1479    1.4314    1.1911 H   0  0  0  0  0  0  0  0  0  0  0  0
    1.4272    2.5309    3.4023 H   0  0  0  0  0  0  0  0  0  0  0  0
    3.1979    1.7022    4.9595 H   0  0  0  0  0  0  0  0  0  0  0  0
    4.6248   -0.2090    4.2229 H   0  0  0  0  0  0  0  0  0  0  0  0
    1.8141   -3.1558    1.2691 H   0  0  0  0  0  0  0  0  0  0  0  0
   -0.7588   -3.7991    0.5552 H   0  0  0  0  0  0  0  0  0  0  0  0
   -2.2958   -2.6769   -1.2410 H   0  0  0  0  0  0  0  0  0  0  0  0
   -4.4801   -1.0094   -4.4679 H   0  0  0  0  0  0  0  0  0  0  0  0
   -3.3509    3.4910   -3.1686 H   0  0  0  0  0  0  0  0  0  0  0  0
   -1.8720    3.9928   -1.0419 H   0  0  0  0  0  0  0  0  0  0  0  0
  1  2  1  0
  2  3  2  0
  3  4  1  0
  4  5  2  0
  5  6  1  0
  6  7  2  0
  1  8  1  0
  8  9  1  0
  9 10  2  0
 10 11  1  0
 11 12  1  0
 12 13  1  0
 13 14  2  0
 14 15  1  0
 15 16  2  0
 16 17  1  0
 17 18  1  0
 18 19  2  0
 19 20  1  0
 20 21  1  0
 11 22  2  0
  7  2  1  0
 22  8  1  0
 21 13  1  0
 21 17  2  0
  1 23  1  0
  1 24  1  0
  3 25  1  0
  4 26  1  0
  5 27  1  0
  6 28  1  0
  9 29  1  0
 10 30  1  0
 12 31  1  0
 15 32  1  0
 18 33  1  0
 19 34  1  0
M  END
>  <Unnamed: 0>  (208) 
1223

>  <ID>  (208) 
TRAIN_1223

>  <Canonical_Smiles>  (208) 
C(c1ccccn1)n2ccc(Nc3ncnc4ccsc34)n2

>  <Inhibition>  (208) 
47.8

>  <TDC_conf_true_inhibitor>  (208) 
1

>  <TDC_conf_non_inhibitor>  (208) 
0

>  <split>  (208) 
1

$$$$
208
     RDKit          3D

 45 47  0  0  0  0  0  0  0  0999 V2000
    7.1578   -1.1316    1.1883 C   0  0  0  0  0  0  0  0  0  0  0  0
    6.2715   -0.7073    0.1163 N   0  0  0  0  0  0  0  0  0  0  0  0
    4.9381   -0.4661    0.4223 C   0  0  0  0  0  0  0  0  0  0  0  0
    4.0513   -0.0740   -0.5083 C   0  0  0  0  0  0  0  0  0  0  0  0
    2.7171    0.1911   -0.2833 N   0  0  0  0  0  0  0  0  0  0  0  0
    2.0090    0.0432    0.8985 C   0  0  0  0  0  0  0  0  0  0  0  0
    2.4369   -0.4152    1.9507 O   0  0  0  0  0  0  0  0  0  0  0  0
    0.5810    0.4600    0.8303 C   0  0  0  0  0  0  0  0  0  0  0  0
    0.1798    1.5914    0.1092 C   0  0  0  0  0  0  0  0  0  0  0  0
   -1.1703    1.9536    0.0712 C   0  0  0  0  0  0  0  0  0  0  0  0
   -2.1331    1.1927    0.7520 C   0  0  0  0  0  0  0  0  0  0  0  0
   -3.5906    1.5926    0.7239 C   0  0  0  0  0  0  0  0  0  0  0  0
   -4.4367    0.5594    0.1348 N   0  0  0  0  0  0  0  0  0  0  0  0
   -5.1705   -0.2277    0.9516 N   0  0  0  0  0  0  0  0  0  0  0  0
   -5.8368   -1.0370    0.1221 C   0  0  0  0  0  0  0  0  0  0  0  0
   -6.7536   -2.0683    0.6619 C   0  0  0  0  0  0  0  0  0  0  0  0
   -5.5403   -0.7546   -1.2282 C   0  0  0  0  0  0  0  0  0  0  0  0
   -4.6379    0.2876   -1.1977 C   0  0  0  0  0  0  0  0  0  0  0  0
   -3.9674    1.0095   -2.3045 C   0  0  0  0  0  0  0  0  0  0  0  0
   -1.7156    0.0747    1.4914 C   0  0  0  0  0  0  0  0  0  0  0  0
   -0.3678   -0.2873    1.5341 C   0  0  0  0  0  0  0  0  0  0  0  0
    4.5204    0.1006   -1.8702 C   0  0  0  0  0  0  0  0  0  0  0  0
    5.7994   -0.1233   -2.1995 C   0  0  0  0  0  0  0  0  0  0  0  0
    6.7791   -0.5585   -1.1700 C   0  0  0  0  0  0  0  0  0  0  0  0
    7.9441   -0.7541   -1.5032 O   0  0  0  0  0  0  0  0  0  0  0  0
    8.1786   -1.2930    0.8316 H   0  0  0  0  0  0  0  0  0  0  0  0
    7.1755   -0.3591    1.9637 H   0  0  0  0  0  0  0  0  0  0  0  0
    6.7824   -2.0686    1.6121 H   0  0  0  0  0  0  0  0  0  0  0  0
    4.6675   -0.6141    1.4624 H   0  0  0  0  0  0  0  0  0  0  0  0
    2.1785    0.4651   -1.0949 H   0  0  0  0  0  0  0  0  0  0  0  0
    0.9075    2.2190   -0.3984 H   0  0  0  0  0  0  0  0  0  0  0  0
   -1.4629    2.8416   -0.4861 H   0  0  0  0  0  0  0  0  0  0  0  0
   -3.9450    1.7878    1.7431 H   0  0  0  0  0  0  0  0  0  0  0  0
   -3.7493    2.5089    0.1448 H   0  0  0  0  0  0  0  0  0  0  0  0
   -7.2124   -2.6496   -0.1443 H   0  0  0  0  0  0  0  0  0  0  0  0
   -7.5563   -1.6027    1.2428 H   0  0  0  0  0  0  0  0  0  0  0  0
   -6.2114   -2.7618    1.3127 H   0  0  0  0  0  0  0  0  0  0  0  0
   -5.9339   -1.2460   -2.1070 H   0  0  0  0  0  0  0  0  0  0  0  0
   -4.3724    0.6978   -3.2730 H   0  0  0  0  0  0  0  0  0  0  0  0
   -4.1146    2.0903   -2.2167 H   0  0  0  0  0  0  0  0  0  0  0  0
   -2.8937    0.7995   -2.3093 H   0  0  0  0  0  0  0  0  0  0  0  0
   -2.4435   -0.5229    2.0408 H   0  0  0  0  0  0  0  0  0  0  0  0
   -0.0613   -1.1547    2.1160 H   0  0  0  0  0  0  0  0  0  0  0  0
    3.8236    0.4153   -2.6390 H   0  0  0  0  0  0  0  0  0  0  0  0
    6.1782   -0.0038   -3.2060 H   0  0  0  0  0  0  0  0  0  0  0  0
  1  2  1  0
  2  3  1  0
  3  4  2  0
  4  5  1  0
  5  6  1  0
  6  7  2  0
  6  8  1  0
  8  9  2  0
  9 10  1  0
 10 11  2  0
 11 12  1  0
 12 13  1  0
 13 14  1  0
 14 15  2  0
 15 16  1  0
 15 17  1  0
 17 18  2  0
 18 19  1  0
 11 20  1  0
 20 21  2  0
  4 22  1  0
 22 23  2  0
 23 24  1  0
 24 25  2  0
 24  2  1  0
 21  8  1  0
 18 13  1  0
  1 26  1  0
  1 27  1  0
  1 28  1  0
  3 29  1  0
  5 30  1  0
  9 31  1  0
 10 32  1  0
 12 33  1  0
 12 34  1  0
 16 35  1  0
 16 36  1  0
 16 37  1  0
 17 38  1  0
 19 39  1  0
 19 40  1  0
 19 41  1  0
 20 42  1  0
 21 43  1  0
 22 44  1  0
 23 45  1  0
M  END
>  <Unnamed: 0>  (209) 
1231

>  <ID>  (209) 
TRAIN_1231

>  <Canonical_Smiles>  (209) 
CN1C=C(NC(=O)c2ccc(Cn3nc(C)cc3C)cc2)C=CC1=O

>  <Inhibition>  (209) 
41.8

>  <TDC_conf_true_inhibitor>  (209) 
0

>  <TDC_conf_non_inhibitor>  (209) 
1

>  <split>  (209) 
1

$$$$
209
     RDKit          3D

 42 42  0  0  0  0  0  0  0  0999 V2000
   -1.9945    1.6320    0.9943 C   0  0  0  0  0  0  0  0  0  0  0  0
   -1.5941    0.5967   -0.0814 C   0  0  0  0  0  0  0  0  0  0  0  0
   -1.7207   -0.8424    0.4923 C   0  0  0  0  0  0  0  0  0  0  0  0
   -2.8584   -1.7341    0.0010 C   0  0  0  0  0  0  0  0  0  0  0  0
   -4.2508   -1.1404    0.1619 C   0  0  0  0  0  0  0  0  0  0  0  0
   -4.6858   -0.3315   -1.0515 C   0  0  0  0  0  0  0  0  0  0  0  0
   -3.9294    0.9722   -1.2577 C   0  0  0  0  0  0  0  0  0  0  0  0
   -2.4097    0.8387   -1.3835 C   0  0  0  0  0  0  0  0  0  0  0  0
   -0.0939    0.8360   -0.4217 C   0  0  0  0  0  0  0  0  0  0  0  0
    0.3055    1.1021   -1.5525 O   0  0  0  0  0  0  0  0  0  0  0  0
    0.7824    0.7095    0.6377 N   0  0  0  0  0  0  0  0  0  0  0  0
    2.2121    0.8881    0.4695 C   0  0  0  0  0  0  0  0  0  0  0  0
    2.8888   -0.2994   -0.2245 C   0  0  0  0  0  0  0  0  0  0  0  0
    4.3108   -0.1491   -0.2595 O   0  0  0  0  0  0  0  0  0  0  0  0
    4.9472   -0.6185    0.9303 C   0  0  0  0  0  0  0  0  0  0  0  0
    6.4637   -0.4409    0.8604 C   0  0  0  0  0  0  0  0  0  0  0  0
    7.2006   -0.5440    1.8352 O   0  0  0  0  0  0  0  0  0  0  0  0
    6.9575   -0.1862   -0.3868 N   0  0  0  0  0  0  0  0  0  0  0  0
   -1.3489    1.5869    1.8780 H   0  0  0  0  0  0  0  0  0  0  0  0
   -1.9222    2.6523    0.6001 H   0  0  0  0  0  0  0  0  0  0  0  0
   -3.0161    1.4743    1.3525 H   0  0  0  0  0  0  0  0  0  0  0  0
   -1.7788   -0.7930    1.5884 H   0  0  0  0  0  0  0  0  0  0  0  0
   -0.7985   -1.4044    0.2888 H   0  0  0  0  0  0  0  0  0  0  0  0
   -2.6808   -2.0365   -1.0380 H   0  0  0  0  0  0  0  0  0  0  0  0
   -2.8160   -2.6608    0.5887 H   0  0  0  0  0  0  0  0  0  0  0  0
   -4.9609   -1.9701    0.2713 H   0  0  0  0  0  0  0  0  0  0  0  0
   -4.3272   -0.5466    1.0793 H   0  0  0  0  0  0  0  0  0  0  0  0
   -4.5988   -0.9486   -1.9548 H   0  0  0  0  0  0  0  0  0  0  0  0
   -5.7523   -0.0952   -0.9485 H   0  0  0  0  0  0  0  0  0  0  0  0
   -4.3013    1.4159   -2.1910 H   0  0  0  0  0  0  0  0  0  0  0  0
   -4.1995    1.6877   -0.4747 H   0  0  0  0  0  0  0  0  0  0  0  0
   -2.0663    1.7845   -1.8277 H   0  0  0  0  0  0  0  0  0  0  0  0
   -2.1665    0.0688   -2.1276 H   0  0  0  0  0  0  0  0  0  0  0  0
    0.4395    0.3969    1.5361 H   0  0  0  0  0  0  0  0  0  0  0  0
    2.6330    1.0515    1.4663 H   0  0  0  0  0  0  0  0  0  0  0  0
    2.3944    1.8038   -0.1050 H   0  0  0  0  0  0  0  0  0  0  0  0
    2.6139   -1.2490    0.2509 H   0  0  0  0  0  0  0  0  0  0  0  0
    2.5496   -0.3585   -1.2641 H   0  0  0  0  0  0  0  0  0  0  0  0
    4.7424   -1.6860    1.0640 H   0  0  0  0  0  0  0  0  0  0  0  0
    4.5871   -0.0531    1.7950 H   0  0  0  0  0  0  0  0  0  0  0  0
    7.9364    0.0441   -0.4788 H   0  0  0  0  0  0  0  0  0  0  0  0
    6.3065    0.0946   -1.1130 H   0  0  0  0  0  0  0  0  0  0  0  0
  1  2  1  0
  2  3  1  0
  3  4  1  0
  4  5  1  0
  5  6  1  0
  6  7  1  0
  7  8  1  0
  2  9  1  0
  9 10  2  0
  9 11  1  0
 11 12  1  0
 12 13  1  0
 13 14  1  0
 14 15  1  0
 15 16  1  0
 16 17  2  0
 16 18  1  0
  8  2  1  0
  1 19  1  0
  1 20  1  0
  1 21  1  0
  3 22  1  0
  3 23  1  0
  4 24  1  0
  4 25  1  0
  5 26  1  0
  5 27  1  0
  6 28  1  0
  6 29  1  0
  7 30  1  0
  7 31  1  0
  8 32  1  0
  8 33  1  0
 11 34  1  0
 12 35  1  0
 12 36  1  0
 13 37  1  0
 13 38  1  0
 15 39  1  0
 15 40  1  0
 18 41  1  0
 18 42  1  0
M  END
>  <Unnamed: 0>  (210) 
1233

>  <ID>  (210) 
TRAIN_1233

>  <Canonical_Smiles>  (210) 
CC1(CCCCCC1)C(=O)NCCOCC(=O)N

>  <Inhibition>  (210) 
32.8

>  <TDC_conf_true_inhibitor>  (210) 
0

>  <TDC_conf_non_inhibitor>  (210) 
1

>  <split>  (210) 
1

$$$$
210
     RDKit          3D

 46 49  0  0  0  0  0  0  0  0999 V2000
   -0.4809   -1.8524    2.7962 C   0  0  0  0  0  0  0  0  0  0  0  0
   -0.8143   -0.9176    1.7264 N   0  0  0  0  0  0  0  0  0  0  0  0
   -2.0121   -1.0558    1.0123 C   0  0  0  0  0  0  0  0  0  0  0  0
   -2.3327   -0.1626    0.0534 C   0  0  0  0  0  0  0  0  0  0  0  0
   -3.6235   -0.2000   -0.7275 C   0  0  0  0  0  0  0  0  0  0  0  0
   -4.6734   -1.1259   -0.1160 C   0  0  0  0  0  0  0  0  0  0  0  0
   -4.0430   -2.4427    0.3096 C   0  0  0  0  0  0  0  0  0  0  0  0
   -2.9368   -2.2124    1.3423 C   0  0  0  0  0  0  0  0  0  0  0  0
   -1.4231    0.9142   -0.2705 C   0  0  0  0  0  0  0  0  0  0  0  0
   -0.2461    1.0517    0.3571 C   0  0  0  0  0  0  0  0  0  0  0  0
    0.0967    0.1182    1.4777 C   0  0  0  0  0  0  0  0  0  0  0  0
    1.1408    0.2764    2.1087 O   0  0  0  0  0  0  0  0  0  0  0  0
    0.6122    2.1240    0.0055 C   0  0  0  0  0  0  0  0  0  0  0  0
    0.3037    3.4064   -0.1026 N   0  0  0  0  0  0  0  0  0  0  0  0
    1.5111    4.0179   -0.2477 C   0  0  0  0  0  0  0  0  0  0  0  0
    1.6509    5.4850   -0.3327 C   0  0  0  0  0  0  0  0  0  0  0  0
    2.5586    3.1964   -0.2983 N   0  0  0  0  0  0  0  0  0  0  0  0
    1.9778    1.9613   -0.2499 N   0  0  0  0  0  0  0  0  0  0  0  0
    2.7693    0.8160   -0.5621 C   0  0  0  0  0  0  0  0  0  0  0  0
    4.1623    0.9241   -0.4979 C   0  0  0  0  0  0  0  0  0  0  0  0
    4.9248   -0.1850   -0.8155 C   0  0  0  0  0  0  0  0  0  0  0  0
    4.4039   -1.3691   -1.1987 N   0  0  0  0  0  0  0  0  0  0  0  0
    3.0575   -1.4600   -1.2756 C   0  0  0  0  0  0  0  0  0  0  0  0
    2.4842   -2.7730   -1.7198 C   0  0  0  0  0  0  0  0  0  0  0  0
    2.2094   -0.3946   -0.9778 C   0  0  0  0  0  0  0  0  0  0  0  0
   -1.3053   -1.9007    3.5140 H   0  0  0  0  0  0  0  0  0  0  0  0
   -0.2977   -2.8402    2.3625 H   0  0  0  0  0  0  0  0  0  0  0  0
    0.4180   -1.5531    3.3422 H   0  0  0  0  0  0  0  0  0  0  0  0
   -3.4027   -0.5294   -1.7511 H   0  0  0  0  0  0  0  0  0  0  0  0
   -4.0554    0.8060   -0.8002 H   0  0  0  0  0  0  0  0  0  0  0  0
   -5.1337   -0.6408    0.7542 H   0  0  0  0  0  0  0  0  0  0  0  0
   -5.4745   -1.3067   -0.8415 H   0  0  0  0  0  0  0  0  0  0  0  0
   -4.8058   -3.1082    0.7293 H   0  0  0  0  0  0  0  0  0  0  0  0
   -3.6261   -2.9505   -0.5696 H   0  0  0  0  0  0  0  0  0  0  0  0
   -2.3712   -3.1472    1.4255 H   0  0  0  0  0  0  0  0  0  0  0  0
   -3.3991   -2.0200    2.3188 H   0  0  0  0  0  0  0  0  0  0  0  0
   -1.7148    1.6107   -1.0540 H   0  0  0  0  0  0  0  0  0  0  0  0
    2.1201    5.7725   -1.2787 H   0  0  0  0  0  0  0  0  0  0  0  0
    2.2674    5.8607    0.4896 H   0  0  0  0  0  0  0  0  0  0  0  0
    0.6738    5.9745   -0.2759 H   0  0  0  0  0  0  0  0  0  0  0  0
    4.6561    1.8418   -0.1929 H   0  0  0  0  0  0  0  0  0  0  0  0
    6.0093   -0.1491   -0.7684 H   0  0  0  0  0  0  0  0  0  0  0  0
    3.2769   -3.5106   -1.8808 H   0  0  0  0  0  0  0  0  0  0  0  0
    1.8039   -3.1655   -0.9574 H   0  0  0  0  0  0  0  0  0  0  0  0
    1.9378   -2.6475   -2.6597 H   0  0  0  0  0  0  0  0  0  0  0  0
    1.1457   -0.5373   -1.1154 H   0  0  0  0  0  0  0  0  0  0  0  0
  1  2  1  0
  2  3  1  0
  3  4  2  0
  4  5  1  0
  5  6  1  0
  6  7  1  0
  7  8  1  0
  4  9  1  0
  9 10  2  0
 10 11  1  0
 11 12  2  0
 10 13  1  0
 13 14  2  0
 14 15  1  0
 15 16  1  0
 15 17  2  0
 17 18  1  0
 18 19  1  0
 19 20  2  0
 20 21  1  0
 21 22  2  0
 22 23  1  0
 23 24  1  0
 23 25  2  0
 11  2  1  0
  8  3  1  0
 18 13  1  0
 25 19  1  0
  1 26  1  0
  1 27  1  0
  1 28  1  0
  5 29  1  0
  5 30  1  0
  6 31  1  0
  6 32  1  0
  7 33  1  0
  7 34  1  0
  8 35  1  0
  8 36  1  0
  9 37  1  0
 16 38  1  0
 16 39  1  0
 16 40  1  0
 20 41  1  0
 21 42  1  0
 24 43  1  0
 24 44  1  0
 24 45  1  0
 25 46  1  0
M  END
>  <Unnamed: 0>  (211) 
1237

>  <ID>  (211) 
TRAIN_1237

>  <Canonical_Smiles>  (211) 
CN1C2=C(CCCC2)C=C(C1=O)c3nc(C)nn3c4ccnc(C)c4

>  <Inhibition>  (211) 
35.2

>  <TDC_conf_true_inhibitor>  (211) 
0

>  <TDC_conf_non_inhibitor>  (211) 
1

>  <split>  (211) 
1

$$$$
211
     RDKit          3D

 50 52  0  0  0  0  0  0  0  0999 V2000
   -0.4228    2.9999    0.3079 C   0  0  0  0  0  0  0  0  0  0  0  0
   -0.5664    1.7491   -0.5654 C   0  0  0  0  0  0  0  0  0  0  0  0
    0.4707    0.7662   -0.2816 N   0  0  0  0  0  0  0  0  0  0  0  0
    1.7594    0.9801   -0.6994 C   0  0  0  0  0  0  0  0  0  0  0  0
    2.1505    1.9910   -1.2627 O   0  0  0  0  0  0  0  0  0  0  0  0
    2.5508   -0.1026   -0.4051 N   0  0  0  0  0  0  0  0  0  0  0  0
    3.9934   -0.0633   -0.6484 C   0  0  0  0  0  0  0  0  0  0  0  0
    4.6998    0.7392    0.4591 C   0  0  0  0  0  0  0  0  0  0  0  0
    6.1978    0.4665    0.4709 C   0  0  0  0  0  0  0  0  0  0  0  0
    6.5138   -1.0042    0.7436 C   0  0  0  0  0  0  0  0  0  0  0  0
    5.3588   -1.9513    0.4106 C   0  0  0  0  0  0  0  0  0  0  0  0
    4.5618   -1.4978   -0.8100 C   0  0  0  0  0  0  0  0  0  0  0  0
    5.4174   -1.5709   -1.9550 O   0  0  0  0  0  0  0  0  0  0  0  0
   -1.9341    1.1091   -0.3898 C   0  0  0  0  0  0  0  0  0  0  0  0
   -2.7893    0.9685   -1.4904 C   0  0  0  0  0  0  0  0  0  0  0  0
   -4.0465    0.3714   -1.3462 C   0  0  0  0  0  0  0  0  0  0  0  0
   -4.4850   -0.1069   -0.1019 C   0  0  0  0  0  0  0  0  0  0  0  0
   -3.6213    0.0305    0.9953 C   0  0  0  0  0  0  0  0  0  0  0  0
   -2.3641    0.6278    0.8551 C   0  0  0  0  0  0  0  0  0  0  0  0
   -5.8085   -0.7323    0.0470 C   0  0  0  0  0  0  0  0  0  0  0  0
   -6.9712   -0.0757   -0.3732 C   0  0  0  0  0  0  0  0  0  0  0  0
   -8.1962   -0.7044   -0.2114 C   0  0  0  0  0  0  0  0  0  0  0  0
   -8.3451   -1.9302    0.3309 N   0  0  0  0  0  0  0  0  0  0  0  0
   -7.2178   -2.5529    0.7309 C   0  0  0  0  0  0  0  0  0  0  0  0
   -5.9498   -2.0045    0.6138 C   0  0  0  0  0  0  0  0  0  0  0  0
    0.5206    3.5181    0.1074 H   0  0  0  0  0  0  0  0  0  0  0  0
   -1.2376    3.7070    0.1166 H   0  0  0  0  0  0  0  0  0  0  0  0
   -0.4327    2.7547    1.3758 H   0  0  0  0  0  0  0  0  0  0  0  0
   -0.4455    2.0547   -1.6129 H   0  0  0  0  0  0  0  0  0  0  0  0
    0.1830   -0.1981   -0.3628 H   0  0  0  0  0  0  0  0  0  0  0  0
    2.2438   -0.6202    0.4064 H   0  0  0  0  0  0  0  0  0  0  0  0
    4.1418    0.4760   -1.5935 H   0  0  0  0  0  0  0  0  0  0  0  0
    4.5194    1.8109    0.3122 H   0  0  0  0  0  0  0  0  0  0  0  0
    4.2773    0.4913    1.4419 H   0  0  0  0  0  0  0  0  0  0  0  0
    6.6914    1.0938    1.2220 H   0  0  0  0  0  0  0  0  0  0  0  0
    6.6222    0.7545   -0.4993 H   0  0  0  0  0  0  0  0  0  0  0  0
    6.7791   -1.1356    1.7998 H   0  0  0  0  0  0  0  0  0  0  0  0
    7.4058   -1.2861    0.1708 H   0  0  0  0  0  0  0  0  0  0  0  0
    4.6858   -2.0192    1.2745 H   0  0  0  0  0  0  0  0  0  0  0  0
    5.7681   -2.9552    0.2457 H   0  0  0  0  0  0  0  0  0  0  0  0
    3.7512   -2.2142   -0.9899 H   0  0  0  0  0  0  0  0  0  0  0  0
    4.8864   -1.3148   -2.7302 H   0  0  0  0  0  0  0  0  0  0  0  0
   -2.4856    1.3221   -2.4740 H   0  0  0  0  0  0  0  0  0  0  0  0
   -4.6815    0.2715   -2.2248 H   0  0  0  0  0  0  0  0  0  0  0  0
   -3.9289   -0.3165    1.9801 H   0  0  0  0  0  0  0  0  0  0  0  0
   -1.7225    0.7166    1.7296 H   0  0  0  0  0  0  0  0  0  0  0  0
   -6.9308    0.9172   -0.8096 H   0  0  0  0  0  0  0  0  0  0  0  0
   -9.1177   -0.2206   -0.5227 H   0  0  0  0  0  0  0  0  0  0  0  0
   -7.3621   -3.5397    1.1616 H   0  0  0  0  0  0  0  0  0  0  0  0
   -5.0871   -2.5705    0.9497 H   0  0  0  0  0  0  0  0  0  0  0  0
  1  2  1  0
  2  3  1  0
  3  4  1  0
  4  5  2  0
  4  6  1  0
  6  7  1  0
  7  8  1  0
  8  9  1  0
  9 10  1  0
 10 11  1  0
 11 12  1  0
 12 13  1  0
  2 14  1  0
 14 15  2  0
 15 16  1  0
 16 17  2  0
 17 18  1  0
 18 19  2  0
 17 20  1  0
 20 21  2  0
 21 22  1  0
 22 23  2  0
 23 24  1  0
 24 25  2  0
 12  7  1  0
 19 14  1  0
 25 20  1  0
  1 26  1  0
  1 27  1  0
  1 28  1  0
  2 29  1  0
  3 30  1  0
  6 31  1  0
  7 32  1  0
  8 33  1  0
  8 34  1  0
  9 35  1  0
  9 36  1  0
 10 37  1  0
 10 38  1  0
 11 39  1  0
 11 40  1  0
 12 41  1  0
 13 42  1  0
 15 43  1  0
 16 44  1  0
 18 45  1  0
 19 46  1  0
 21 47  1  0
 22 48  1  0
 24 49  1  0
 25 50  1  0
M  END
>  <Unnamed: 0>  (212) 
1239

>  <ID>  (212) 
TRAIN_1239

>  <Canonical_Smiles>  (212) 
CC(NC(=O)NC1CCCCC1O)c2ccc(cc2)c3ccncc3

>  <Inhibition>  (212) 
65.3

>  <TDC_conf_true_inhibitor>  (212) 
1

>  <TDC_conf_non_inhibitor>  (212) 
0

>  <split>  (212) 
1

$$$$
212
     RDKit          3D

 37 39  0  0  0  0  0  0  0  0999 V2000
   -1.7130   -1.0781   -0.9378 C   0  0  0  0  0  0  0  0  0  0  0  0
   -2.6397   -0.1121   -0.1749 C   0  0  0  0  0  0  0  0  0  0  0  0
   -3.0322    1.0554   -1.1000 C   0  0  0  0  0  0  0  0  0  0  0  0
   -3.9307   -0.8961    0.1628 C   0  0  0  0  0  0  0  0  0  0  0  0
   -1.9802    0.4240    1.0976 C   0  0  0  0  0  0  0  0  0  0  0  0
   -2.7132    0.3700    2.2844 N   0  0  0  0  0  0  0  0  0  0  0  0
   -2.0468    0.9333    3.2645 C   0  0  0  0  0  0  0  0  0  0  0  0
   -0.5024    1.5420    2.8662 S   0  0  0  0  0  0  0  0  0  0  0  0
   -0.7219    0.9940    1.2532 C   0  0  0  0  0  0  0  0  0  0  0  0
    0.3188    1.2447    0.2790 C   0  0  0  0  0  0  0  0  0  0  0  0
    0.2266    2.1830   -0.5096 O   0  0  0  0  0  0  0  0  0  0  0  0
    1.3850    0.3477    0.2825 N   0  0  0  0  0  0  0  0  0  0  0  0
    1.5482   -0.8151    1.1788 C   0  0  0  0  0  0  0  0  0  0  0  0
    2.7718   -1.6045    0.6937 C   0  0  0  0  0  0  0  0  0  0  0  0
    3.3341   -0.6877   -0.3351 C   0  0  0  0  0  0  0  0  0  0  0  0
    4.4911   -0.8221   -1.0653 C   0  0  0  0  0  0  0  0  0  0  0  0
    4.8572    0.0788   -2.0016 N   0  0  0  0  0  0  0  0  0  0  0  0
    4.0269    1.1346   -2.2067 C   0  0  0  0  0  0  0  0  0  0  0  0
    2.8407    1.3444   -1.5205 C   0  0  0  0  0  0  0  0  0  0  0  0
    2.5069    0.4044   -0.5676 C   0  0  0  0  0  0  0  0  0  0  0  0
   -0.8337   -0.5711   -1.3456 H   0  0  0  0  0  0  0  0  0  0  0  0
   -2.2330   -1.5361   -1.7876 H   0  0  0  0  0  0  0  0  0  0  0  0
   -1.3620   -1.8877   -0.2879 H   0  0  0  0  0  0  0  0  0  0  0  0
   -3.5584    0.6955   -1.9916 H   0  0  0  0  0  0  0  0  0  0  0  0
   -3.6920    1.7639   -0.5853 H   0  0  0  0  0  0  0  0  0  0  0  0
   -2.1566    1.6152   -1.4432 H   0  0  0  0  0  0  0  0  0  0  0  0
   -3.7195   -1.7422    0.8277 H   0  0  0  0  0  0  0  0  0  0  0  0
   -4.6707   -0.2583    0.6608 H   0  0  0  0  0  0  0  0  0  0  0  0
   -4.4027   -1.2957   -0.7424 H   0  0  0  0  0  0  0  0  0  0  0  0
   -2.4505    1.0122    4.2656 H   0  0  0  0  0  0  0  0  0  0  0  0
    1.7119   -0.4450    2.1970 H   0  0  0  0  0  0  0  0  0  0  0  0
    0.6426   -1.4300    1.1772 H   0  0  0  0  0  0  0  0  0  0  0  0
    3.4742   -1.7942    1.5105 H   0  0  0  0  0  0  0  0  0  0  0  0
    2.4684   -2.5532    0.2395 H   0  0  0  0  0  0  0  0  0  0  0  0
    5.1661   -1.6606   -0.9311 H   0  0  0  0  0  0  0  0  0  0  0  0
    4.3567    1.8350   -2.9696 H   0  0  0  0  0  0  0  0  0  0  0  0
    2.2318    2.2115   -1.7378 H   0  0  0  0  0  0  0  0  0  0  0  0
  1  2  1  0
  2  3  1  0
  2  4  1  0
  2  5  1  0
  5  6  1  0
  6  7  2  0
  7  8  1  0
  8  9  1  0
  9 10  1  0
 10 11  2  0
 10 12  1  0
 12 13  1  0
 13 14  1  0
 14 15  1  0
 15 16  2  0
 16 17  1  0
 17 18  2  0
 18 19  1  0
 19 20  2  0
  9  5  2  0
 20 12  1  0
 20 15  1  0
  1 21  1  0
  1 22  1  0
  1 23  1  0
  3 24  1  0
  3 25  1  0
  3 26  1  0
  4 27  1  0
  4 28  1  0
  4 29  1  0
  7 30  1  0
 13 31  1  0
 13 32  1  0
 14 33  1  0
 14 34  1  0
 16 35  1  0
 18 36  1  0
 19 37  1  0
M  END
>  <Unnamed: 0>  (213) 
1243

>  <ID>  (213) 
TRAIN_1243

>  <Canonical_Smiles>  (213) 
CC(C)(C)c1ncsc1C(=O)N2CCc3cnccc23

>  <Inhibition>  (213) 
55.9

>  <TDC_conf_true_inhibitor>  (213) 
1

>  <TDC_conf_non_inhibitor>  (213) 
0

>  <split>  (213) 
1

$$$$
213
     RDKit          3D

 45 47  0  0  0  0  0  0  0  0999 V2000
    4.0075    1.0438    1.3325 O   0  0  0  0  0  0  0  0  0  0  0  0
    5.0865    0.7305    0.5560 C   0  0  0  0  0  0  0  0  0  0  0  0
    6.3554    0.6750    1.1380 C   0  0  0  0  0  0  0  0  0  0  0  0
    7.4674    0.3938    0.3435 C   0  0  0  0  0  0  0  0  0  0  0  0
    7.3040    0.1802   -1.0214 C   0  0  0  0  0  0  0  0  0  0  0  0
    8.3779   -0.0775   -1.7779 F   0  0  0  0  0  0  0  0  0  0  0  0
    6.0473    0.2319   -1.6107 C   0  0  0  0  0  0  0  0  0  0  0  0
    4.9240    0.4885   -0.8158 C   0  0  0  0  0  0  0  0  0  0  0  0
    3.6100    0.5524   -1.4972 C   0  0  0  0  0  0  0  0  0  0  0  0
    3.5303    1.1329   -2.5777 O   0  0  0  0  0  0  0  0  0  0  0  0
    2.4152   -0.1204   -0.9016 C   0  0  0  0  0  0  0  0  0  0  0  0
    2.5187   -1.2497   -0.1931 C   0  0  0  0  0  0  0  0  0  0  0  0
    1.4161   -1.9204    0.3572 O   0  0  0  0  0  0  0  0  0  0  0  0
    0.1630   -1.4180    0.1678 C   0  0  0  0  0  0  0  0  0  0  0  0
   -0.8093   -2.0648    0.7248 N   0  0  0  0  0  0  0  0  0  0  0  0
   -0.0058   -0.1934   -0.6452 C   0  0  0  0  0  0  0  0  0  0  0  0
    1.0913    0.4010   -1.1458 C   0  0  0  0  0  0  0  0  0  0  0  0
   -1.3295    0.4341   -0.9481 C   0  0  0  0  0  0  0  0  0  0  0  0
   -1.4188    1.5055   -1.5417 O   0  0  0  0  0  0  0  0  0  0  0  0
   -2.4237   -0.2675   -0.5089 N   0  0  0  0  0  0  0  0  0  0  0  0
   -3.7788    0.2583   -0.5832 C   0  0  0  0  0  0  0  0  0  0  0  0
   -4.8009   -0.8906   -0.5880 C   0  0  0  0  0  0  0  0  0  0  0  0
   -5.2874   -1.2231    0.8182 C   0  0  0  0  0  0  0  0  0  0  0  0
   -5.9794   -0.0284    1.4786 C   0  0  0  0  0  0  0  0  0  0  0  0
   -5.4827    1.3243    0.9657 C   0  0  0  0  0  0  0  0  0  0  0  0
   -4.0167    1.2655    0.5570 C   0  0  0  0  0  0  0  0  0  0  0  0
    4.3096    1.3298    2.2121 H   0  0  0  0  0  0  0  0  0  0  0  0
    6.4982    0.8528    2.2004 H   0  0  0  0  0  0  0  0  0  0  0  0
    8.4630    0.3493    0.7756 H   0  0  0  0  0  0  0  0  0  0  0  0
    5.9532    0.0784   -2.6818 H   0  0  0  0  0  0  0  0  0  0  0  0
    3.4290   -1.7826    0.0439 H   0  0  0  0  0  0  0  0  0  0  0  0
   -0.3823   -2.8633    1.2136 H   0  0  0  0  0  0  0  0  0  0  0  0
    1.0182    1.2999   -1.7562 H   0  0  0  0  0  0  0  0  0  0  0  0
   -2.2477   -1.0830    0.0837 H   0  0  0  0  0  0  0  0  0  0  0  0
   -3.8661    0.7874   -1.5413 H   0  0  0  0  0  0  0  0  0  0  0  0
   -5.6683   -0.5955   -1.1928 H   0  0  0  0  0  0  0  0  0  0  0  0
   -4.3812   -1.7858   -1.0622 H   0  0  0  0  0  0  0  0  0  0  0  0
   -5.9758   -2.0751    0.7906 H   0  0  0  0  0  0  0  0  0  0  0  0
   -4.4329   -1.5341    1.4323 H   0  0  0  0  0  0  0  0  0  0  0  0
   -5.8287   -0.0915    2.5629 H   0  0  0  0  0  0  0  0  0  0  0  0
   -7.0621   -0.0887    1.3155 H   0  0  0  0  0  0  0  0  0  0  0  0
   -5.6324    2.0878    1.7376 H   0  0  0  0  0  0  0  0  0  0  0  0
   -6.0856    1.6324    0.1021 H   0  0  0  0  0  0  0  0  0  0  0  0
   -3.6747    2.2595    0.2444 H   0  0  0  0  0  0  0  0  0  0  0  0
   -3.4152    0.9991    1.4366 H   0  0  0  0  0  0  0  0  0  0  0  0
  1  2  1  0
  2  3  2  0
  3  4  1  0
  4  5  2  0
  5  6  1  0
  5  7  1  0
  7  8  2  0
  8  9  1  0
  9 10  2  0
  9 11  1  0
 11 12  2  0
 12 13  1  0
 13 14  1  0
 14 15  2  3
 14 16  1  0
 16 17  2  0
 16 18  1  0
 18 19  2  0
 18 20  1  0
 20 21  1  0
 21 22  1  0
 22 23  1  0
 23 24  1  0
 24 25  1  0
 25 26  1  0
  8  2  1  0
 17 11  1  0
 26 21  1  0
  1 27  1  0
  3 28  1  0
  4 29  1  0
  7 30  1  0
 12 31  1  0
 15 32  1  0
 17 33  1  0
 20 34  1  0
 21 35  1  0
 22 36  1  0
 22 37  1  0
 23 38  1  0
 23 39  1  0
 24 40  1  0
 24 41  1  0
 25 42  1  0
 25 43  1  0
 26 44  1  0
 26 45  1  0
M  END
>  <Unnamed: 0>  (214) 
1245

>  <ID>  (214) 
TRAIN_1245

>  <Canonical_Smiles>  (214) 
Oc1ccc(F)cc1C(=O)C2=COC(=N)C(=C2)C(=O)NC3CCCCC3

>  <Inhibition>  (214) 
42.5

>  <TDC_conf_true_inhibitor>  (214) 
0

>  <TDC_conf_non_inhibitor>  (214) 
1

>  <split>  (214) 
1

$$$$
214
     RDKit          3D

 48 50  0  0  0  0  0  0  0  0999 V2000
   -1.3030    2.1518    1.8990 C   0  0  0  0  0  0  0  0  0  0  0  0
   -1.7213    1.6125    0.5302 C   0  0  0  0  0  0  0  0  0  0  0  0
   -0.9229    2.2702   -0.5982 C   0  0  0  0  0  0  0  0  0  0  0  0
   -1.7695    0.1180    0.4924 N   0  0  0  0  0  0  0  0  0  0  0  0
   -0.6473   -0.7355    0.5577 C   0  0  0  0  0  0  0  0  0  0  0  0
   -0.6698   -1.9414    0.8099 O   0  0  0  0  0  0  0  0  0  0  0  0
    0.7058   -0.2176    0.3075 C   0  0  0  0  0  0  0  0  0  0  0  0
    1.5511    0.0689    1.3833 C   0  0  0  0  0  0  0  0  0  0  0  0
    2.8619    0.4813    1.1376 C   0  0  0  0  0  0  0  0  0  0  0  0
    3.3382    0.5569   -0.1792 C   0  0  0  0  0  0  0  0  0  0  0  0
    2.4940    0.2424   -1.2537 C   0  0  0  0  0  0  0  0  0  0  0  0
    1.1813   -0.1664   -1.0085 C   0  0  0  0  0  0  0  0  0  0  0  0
    4.7305    1.0205   -0.3997 C   0  0  0  0  0  0  0  0  0  0  0  0
    5.1148    2.0066    0.2255 O   0  0  0  0  0  0  0  0  0  0  0  0
    5.5999    0.3042   -1.3313 C   0  0  0  0  0  0  0  0  0  0  0  0
    6.8354    0.7830   -1.8616 C   0  0  0  0  0  0  0  0  0  0  0  0
    7.3576   -0.1906   -2.6821 C   0  0  0  0  0  0  0  0  0  0  0  0
    6.5027   -1.2579   -2.6613 N   0  0  0  0  0  0  0  0  0  0  0  0
    5.4375   -0.9728   -1.8444 C   0  0  0  0  0  0  0  0  0  0  0  0
   -3.0887   -0.4902    0.5440 C   0  0  0  0  0  0  0  0  0  0  0  0
   -3.3307   -1.7302   -0.0669 C   0  0  0  0  0  0  0  0  0  0  0  0
   -4.6010   -2.3206   -0.0537 C   0  0  0  0  0  0  0  0  0  0  0  0
   -5.6729   -1.6815    0.5693 C   0  0  0  0  0  0  0  0  0  0  0  0
   -7.0350   -2.3062    0.6032 C   0  0  0  0  0  0  0  0  0  0  0  0
   -5.4489   -0.4496    1.1869 C   0  0  0  0  0  0  0  0  0  0  0  0
   -4.1761    0.1371    1.1719 C   0  0  0  0  0  0  0  0  0  0  0  0
   -1.8821    1.6870    2.7036 H   0  0  0  0  0  0  0  0  0  0  0  0
   -0.2464    1.9750    2.1085 H   0  0  0  0  0  0  0  0  0  0  0  0
   -1.4663    3.2337    1.9485 H   0  0  0  0  0  0  0  0  0  0  0  0
   -2.7376    1.9761    0.3417 H   0  0  0  0  0  0  0  0  0  0  0  0
   -1.1021    1.7695   -1.5552 H   0  0  0  0  0  0  0  0  0  0  0  0
    0.1505    2.2936   -0.3984 H   0  0  0  0  0  0  0  0  0  0  0  0
   -1.2305    3.3170   -0.7095 H   0  0  0  0  0  0  0  0  0  0  0  0
    1.1941   -0.0347    2.4051 H   0  0  0  0  0  0  0  0  0  0  0  0
    3.5178    0.7284    1.9701 H   0  0  0  0  0  0  0  0  0  0  0  0
    2.8466    0.3178   -2.2795 H   0  0  0  0  0  0  0  0  0  0  0  0
    0.5305   -0.4392   -1.8359 H   0  0  0  0  0  0  0  0  0  0  0  0
    7.2855    1.7468   -1.6547 H   0  0  0  0  0  0  0  0  0  0  0  0
    8.2668   -0.2165   -3.2680 H   0  0  0  0  0  0  0  0  0  0  0  0
    6.6410   -2.1276   -3.1612 H   0  0  0  0  0  0  0  0  0  0  0  0
    4.6650   -1.7161   -1.6911 H   0  0  0  0  0  0  0  0  0  0  0  0
   -2.5380   -2.2590   -0.5907 H   0  0  0  0  0  0  0  0  0  0  0  0
   -4.7361   -3.2850   -0.5372 H   0  0  0  0  0  0  0  0  0  0  0  0
   -7.0760   -3.2134   -0.0095 H   0  0  0  0  0  0  0  0  0  0  0  0
   -7.2982   -2.5775    1.6310 H   0  0  0  0  0  0  0  0  0  0  0  0
   -7.7821   -1.6073    0.2117 H   0  0  0  0  0  0  0  0  0  0  0  0
   -6.2636    0.0631    1.6929 H   0  0  0  0  0  0  0  0  0  0  0  0
   -4.0621    1.0755    1.7044 H   0  0  0  0  0  0  0  0  0  0  0  0
  1  2  1  0
  2  3  1  0
  2  4  1  0
  4  5  1  0
  5  6  2  0
  5  7  1  0
  7  8  2  0
  8  9  1  0
  9 10  2  0
 10 11  1  0
 11 12  2  0
 10 13  1  0
 13 14  2  0
 13 15  1  0
 15 16  1  0
 16 17  2  0
 17 18  1  0
 18 19  1  0
  4 20  1  0
 20 21  2  0
 21 22  1  0
 22 23  2  0
 23 24  1  0
 23 25  1  0
 25 26  2  0
 12  7  1  0
 19 15  2  0
 26 20  1  0
  1 27  1  0
  1 28  1  0
  1 29  1  0
  2 30  1  0
  3 31  1  0
  3 32  1  0
  3 33  1  0
  8 34  1  0
  9 35  1  0
 11 36  1  0
 12 37  1  0
 16 38  1  0
 17 39  1  0
 18 40  1  0
 19 41  1  0
 21 42  1  0
 22 43  1  0
 24 44  1  0
 24 45  1  0
 24 46  1  0
 25 47  1  0
 26 48  1  0
M  END
>  <Unnamed: 0>  (215) 
1250

>  <ID>  (215) 
TRAIN_1250

>  <Canonical_Smiles>  (215) 
CC(C)N(C(=O)c1ccc(cc1)C(=O)c2cc[nH]c2)c3ccc(C)cc3

>  <Inhibition>  (215) 
47.1

>  <TDC_conf_true_inhibitor>  (215) 
1

>  <TDC_conf_non_inhibitor>  (215) 
0

>  <split>  (215) 
1

$$$$
215
     RDKit          3D

 36 37  0  0  0  0  0  0  0  0999 V2000
    3.6928   -3.4159   -1.0173 C   0  0  0  0  0  0  0  0  0  0  0  0
    3.4886   -2.0095   -1.0711 O   0  0  0  0  0  0  0  0  0  0  0  0
    2.2853   -1.6354   -0.3992 C   0  0  0  0  0  0  0  0  0  0  0  0
    2.1404   -0.1669   -0.5383 C   0  0  0  0  0  0  0  0  0  0  0  0
    3.0438    0.5819   -1.2400 N   0  0  0  0  0  0  0  0  0  0  0  0
    2.7524    1.8906   -1.2887 N   0  0  0  0  0  0  0  0  0  0  0  0
    1.6057    1.9912   -0.6041 C   0  0  0  0  0  0  0  0  0  0  0  0
    0.9484    3.3128   -0.4503 C   0  0  0  0  0  0  0  0  0  0  0  0
    1.1829    0.7303   -0.1010 C   0  0  0  0  0  0  0  0  0  0  0  0
    0.0196    0.3741    0.6867 C   0  0  0  0  0  0  0  0  0  0  0  0
    0.1858   -0.1255    1.9817 C   0  0  0  0  0  0  0  0  0  0  0  0
   -0.9335   -0.4550    2.7404 C   0  0  0  0  0  0  0  0  0  0  0  0
   -2.1864   -0.2704    2.1795 C   0  0  0  0  0  0  0  0  0  0  0  0
   -3.2631   -0.6134    2.9731 O   0  0  0  0  0  0  0  0  0  0  0  0
   -4.5183   -0.3861    2.3402 C   0  0  0  0  0  0  0  0  0  0  0  0
   -2.3905    0.2119    0.9368 N   0  0  0  0  0  0  0  0  0  0  0  0
   -1.2882    0.5281    0.2145 C   0  0  0  0  0  0  0  0  0  0  0  0
   -1.4570    1.0186   -1.0672 O   0  0  0  0  0  0  0  0  0  0  0  0
   -2.8193    1.1452   -1.4566 C   0  0  0  0  0  0  0  0  0  0  0  0
    2.8723   -3.9414   -1.5154 H   0  0  0  0  0  0  0  0  0  0  0  0
    4.6244   -3.6482   -1.5400 H   0  0  0  0  0  0  0  0  0  0  0  0
    3.7812   -3.7508    0.0206 H   0  0  0  0  0  0  0  0  0  0  0  0
    1.4296   -2.1433   -0.8580 H   0  0  0  0  0  0  0  0  0  0  0  0
    2.3557   -1.9139    0.6577 H   0  0  0  0  0  0  0  0  0  0  0  0
    3.8768    0.2400   -1.7095 H   0  0  0  0  0  0  0  0  0  0  0  0
    0.4503    3.3932    0.5211 H   0  0  0  0  0  0  0  0  0  0  0  0
    0.2000    3.4574   -1.2357 H   0  0  0  0  0  0  0  0  0  0  0  0
    1.6767    4.1278   -0.5177 H   0  0  0  0  0  0  0  0  0  0  0  0
    1.1787   -0.2461    2.4074 H   0  0  0  0  0  0  0  0  0  0  0  0
   -0.8327   -0.8409    3.7486 H   0  0  0  0  0  0  0  0  0  0  0  0
   -5.3037   -0.6816    3.0426 H   0  0  0  0  0  0  0  0  0  0  0  0
   -4.6269   -1.0025    1.4411 H   0  0  0  0  0  0  0  0  0  0  0  0
   -4.6604    0.6755    2.1096 H   0  0  0  0  0  0  0  0  0  0  0  0
   -3.3205    0.1712   -1.4711 H   0  0  0  0  0  0  0  0  0  0  0  0
   -3.3523    1.8535   -0.8129 H   0  0  0  0  0  0  0  0  0  0  0  0
   -2.8386    1.5437   -2.4756 H   0  0  0  0  0  0  0  0  0  0  0  0
  1  2  1  0
  2  3  1  0
  3  4  1  0
  4  5  1  0
  5  6  1  0
  6  7  2  0
  7  8  1  0
  7  9  1  0
  9 10  1  0
 10 11  2  0
 11 12  1  0
 12 13  2  0
 13 14  1  0
 14 15  1  0
 13 16  1  0
 16 17  2  0
 17 18  1  0
 18 19  1  0
  9  4  2  0
 17 10  1  0
  1 20  1  0
  1 21  1  0
  1 22  1  0
  3 23  1  0
  3 24  1  0
  5 25  1  0
  8 26  1  0
  8 27  1  0
  8 28  1  0
 11 29  1  0
 12 30  1  0
 15 31  1  0
 15 32  1  0
 15 33  1  0
 19 34  1  0
 19 35  1  0
 19 36  1  0
M  END
>  <Unnamed: 0>  (216) 
1258

>  <ID>  (216) 
TRAIN_1258

>  <Canonical_Smiles>  (216) 
COCc1[nH]nc(C)c1c2ccc(OC)nc2OC

>  <Inhibition>  (216) 
37.3

>  <TDC_conf_true_inhibitor>  (216) 
0

>  <TDC_conf_non_inhibitor>  (216) 
1

>  <split>  (216) 
1

$$$$
216
     RDKit          3D

 53 57  0  0  0  0  0  0  0  0999 V2000
    4.3894   -2.0506    1.0432 O   0  0  0  0  0  0  0  0  0  0  0  0
    3.5280   -1.2399    0.7445 C   0  0  0  0  0  0  0  0  0  0  0  0
    2.2205   -1.6222    0.5784 O   0  0  0  0  0  0  0  0  0  0  0  0
    1.4128   -0.4440    0.4675 C   0  0  0  0  0  0  0  0  0  0  0  0
    0.2848   -0.6307   -0.5638 C   0  0  0  0  0  0  0  0  0  0  0  0
   -0.8504   -1.5016   -0.1986 N   0  0  0  0  0  0  0  0  0  0  0  0
   -0.4559   -2.8764    0.1037 C   0  0  0  0  0  0  0  0  0  0  0  0
   -1.6847   -3.7906    0.0788 C   0  0  0  0  0  0  0  0  0  0  0  0
   -2.9027   -3.1883    0.7808 C   0  0  0  0  0  0  0  0  0  0  0  0
   -2.5183   -1.9857    1.6355 C   0  0  0  0  0  0  0  0  0  0  0  0
   -1.7363   -0.9209    0.8306 C   0  0  0  0  0  0  0  0  0  0  0  0
   -2.6869    0.0456    0.1818 C   0  0  0  0  0  0  0  0  0  0  0  0
   -3.2451    1.2214    0.6446 C   0  0  0  0  0  0  0  0  0  0  0  0
   -4.0806    1.7462   -0.3804 C   0  0  0  0  0  0  0  0  0  0  0  0
   -4.8915    2.8921   -0.4923 C   0  0  0  0  0  0  0  0  0  0  0  0
   -5.6004    3.1163   -1.6785 C   0  0  0  0  0  0  0  0  0  0  0  0
   -5.5093    2.2198   -2.7413 C   0  0  0  0  0  0  0  0  0  0  0  0
   -4.7111    1.0751   -2.6528 C   0  0  0  0  0  0  0  0  0  0  0  0
   -4.0107    0.8659   -1.4594 C   0  0  0  0  0  0  0  0  0  0  0  0
   -3.1662   -0.1535   -1.0922 N   0  0  0  0  0  0  0  0  0  0  0  0
    2.3944    0.6268    0.0386 C   0  0  0  0  0  0  0  0  0  0  0  0
    3.6514    0.1202    0.4988 N   0  0  0  0  0  0  0  0  0  0  0  0
    4.8411    0.8946    0.5240 C   0  0  0  0  0  0  0  0  0  0  0  0
    6.0507    0.3779    1.0062 C   0  0  0  0  0  0  0  0  0  0  0  0
    7.2146    1.1559    1.0308 C   0  0  0  0  0  0  0  0  0  0  0  0
    7.1899    2.4687    0.5744 C   0  0  0  0  0  0  0  0  0  0  0  0
    6.0006    3.0037    0.0934 C   0  0  0  0  0  0  0  0  0  0  0  0
    4.8381    2.2244    0.0698 C   0  0  0  0  0  0  0  0  0  0  0  0
    1.0170   -0.2186    1.4638 H   0  0  0  0  0  0  0  0  0  0  0  0
    0.7182   -1.0403   -1.4863 H   0  0  0  0  0  0  0  0  0  0  0  0
   -0.1088    0.3558   -0.8400 H   0  0  0  0  0  0  0  0  0  0  0  0
    0.0377   -2.9432    1.0812 H   0  0  0  0  0  0  0  0  0  0  0  0
    0.2542   -3.2514   -0.6435 H   0  0  0  0  0  0  0  0  0  0  0  0
   -1.9552   -4.0251   -0.9584 H   0  0  0  0  0  0  0  0  0  0  0  0
   -1.4228   -4.7450    0.5512 H   0  0  0  0  0  0  0  0  0  0  0  0
   -3.3913   -3.9503    1.3987 H   0  0  0  0  0  0  0  0  0  0  0  0
   -3.6412   -2.8842    0.0292 H   0  0  0  0  0  0  0  0  0  0  0  0
   -1.8874   -2.3406    2.4618 H   0  0  0  0  0  0  0  0  0  0  0  0
   -3.4174   -1.5575    2.0953 H   0  0  0  0  0  0  0  0  0  0  0  0
   -1.1504   -0.3590    1.5687 H   0  0  0  0  0  0  0  0  0  0  0  0
   -3.0752    1.6603    1.6188 H   0  0  0  0  0  0  0  0  0  0  0  0
   -4.9683    3.5951    0.3314 H   0  0  0  0  0  0  0  0  0  0  0  0
   -6.2285    3.9990   -1.7688 H   0  0  0  0  0  0  0  0  0  0  0  0
   -6.0685    2.4110   -3.6543 H   0  0  0  0  0  0  0  0  0  0  0  0
   -4.6431    0.3772   -3.4806 H   0  0  0  0  0  0  0  0  0  0  0  0
   -2.8956   -0.9349   -1.6745 H   0  0  0  0  0  0  0  0  0  0  0  0
    2.4440    0.7327   -1.0515 H   0  0  0  0  0  0  0  0  0  0  0  0
    2.1417    1.5893    0.4943 H   0  0  0  0  0  0  0  0  0  0  0  0
    6.1279   -0.6370    1.3847 H   0  0  0  0  0  0  0  0  0  0  0  0
    8.1391    0.7277    1.4102 H   0  0  0  0  0  0  0  0  0  0  0  0
    8.0943    3.0708    0.5935 H   0  0  0  0  0  0  0  0  0  0  0  0
    5.9741    4.0289   -0.2675 H   0  0  0  0  0  0  0  0  0  0  0  0
    3.9394    2.6891   -0.3234 H   0  0  0  0  0  0  0  0  0  0  0  0
  1  2  2  0
  2  3  1  0
  3  4  1  0
  4  5  1  0
  5  6  1  0
  6  7  1  0
  7  8  1  0
  8  9  1  0
  9 10  1  0
 10 11  1  0
 11 12  1  0
 12 13  2  0
 13 14  1  0
 14 15  2  0
 15 16  1  0
 16 17  2  0
 17 18  1  0
 18 19  2  0
 19 20  1  0
  4 21  1  0
 21 22  1  0
 22 23  1  0
 23 24  2  0
 24 25  1  0
 25 26  2  0
 26 27  1  0
 27 28  2  0
 22  2  1  0
 11  6  1  0
 20 12  1  0
 19 14  1  0
 28 23  1  0
  4 29  1  0
  5 30  1  0
  5 31  1  0
  7 32  1  0
  7 33  1  0
  8 34  1  0
  8 35  1  0
  9 36  1  0
  9 37  1  0
 10 38  1  0
 10 39  1  0
 11 40  1  0
 13 41  1  0
 15 42  1  0
 16 43  1  0
 17 44  1  0
 18 45  1  0
 20 46  1  0
 21 47  1  0
 21 48  1  0
 24 49  1  0
 25 50  1  0
 26 51  1  0
 27 52  1  0
 28 53  1  0
M  END
>  <Unnamed: 0>  (217) 
1263

>  <ID>  (217) 
TRAIN_1263

>  <Canonical_Smiles>  (217) 
O=C1OC(CN2CCCCC2c3cc4ccccc4[nH]3)CN1c5ccccc5

>  <Inhibition>  (217) 
69.2

>  <TDC_conf_true_inhibitor>  (217) 
1

>  <TDC_conf_non_inhibitor>  (217) 
0

>  <split>  (217) 
1

$$$$
217
     RDKit          3D

 47 51  0  0  0  0  0  0  0  0999 V2000
   -3.9875   -1.3507    2.5736 Cl  0  0  0  0  0  0  0  0  0  0  0  0
   -3.6833   -1.9866    0.9928 C   0  0  0  0  0  0  0  0  0  0  0  0
   -4.7795   -2.4713    0.2737 C   0  0  0  0  0  0  0  0  0  0  0  0
   -4.5966   -2.9856   -1.0103 C   0  0  0  0  0  0  0  0  0  0  0  0
   -3.3107   -3.0440   -1.5630 C   0  0  0  0  0  0  0  0  0  0  0  0
   -2.2174   -2.5534   -0.8432 C   0  0  0  0  0  0  0  0  0  0  0  0
   -2.3924   -2.0080    0.4349 C   0  0  0  0  0  0  0  0  0  0  0  0
   -1.2406   -1.4436    1.1387 C   0  0  0  0  0  0  0  0  0  0  0  0
   -0.4447   -2.1034    1.9542 N   0  0  0  0  0  0  0  0  0  0  0  0
    0.4379   -1.2137    2.4987 N   0  0  0  0  0  0  0  0  0  0  0  0
    0.1749   -0.0284    2.0022 C   0  0  0  0  0  0  0  0  0  0  0  0
    0.9862    1.4218    2.4788 S   0  0  0  0  0  0  0  0  0  0  0  0
    2.6670    0.7708    2.8063 C   0  0  0  0  0  0  0  0  0  0  0  0
    3.3414    0.3470    1.5083 C   0  0  0  0  0  0  0  0  0  0  0  0
    3.4582   -0.9548    1.1840 C   0  0  0  0  0  0  0  0  0  0  0  0
    4.0754   -1.3360   -0.1058 C   0  0  0  0  0  0  0  0  0  0  0  0
    4.1704   -2.5214   -0.4198 O   0  0  0  0  0  0  0  0  0  0  0  0
    4.4939   -0.2735   -0.8695 N   0  0  0  0  0  0  0  0  0  0  0  0
    5.0564   -0.3666   -2.1183 C   0  0  0  0  0  0  0  0  0  0  0  0
    5.3722    0.8130   -2.6653 C   0  0  0  0  0  0  0  0  0  0  0  0
    4.9770    2.1351   -1.6027 S   0  0  0  0  0  0  0  0  0  0  0  0
    4.3440    1.0168   -0.4061 C   0  0  0  0  0  0  0  0  0  0  0  0
    3.8134    1.3761    0.7135 N   0  0  0  0  0  0  0  0  0  0  0  0
   -0.8282   -0.1191    1.0734 N   0  0  0  0  0  0  0  0  0  0  0  0
   -1.4235    0.8898    0.2198 C   0  0  0  0  0  0  0  0  0  0  0  0
   -0.5093    1.8102   -0.5856 C   0  0  0  0  0  0  0  0  0  0  0  0
   -1.4743    2.8668   -1.1246 C   0  0  0  0  0  0  0  0  0  0  0  0
   -2.5559    3.0080   -0.0611 C   0  0  0  0  0  0  0  0  0  0  0  0
   -2.3495    1.8626    0.9400 C   0  0  0  0  0  0  0  0  0  0  0  0
   -5.7800   -2.4478    0.7098 H   0  0  0  0  0  0  0  0  0  0  0  0
   -5.4517   -3.3536   -1.5700 H   0  0  0  0  0  0  0  0  0  0  0  0
   -3.1662   -3.4604   -2.5667 H   0  0  0  0  0  0  0  0  0  0  0  0
   -1.2328   -2.5809   -1.2958 H   0  0  0  0  0  0  0  0  0  0  0  0
    3.2486    1.5795    3.2641 H   0  0  0  0  0  0  0  0  0  0  0  0
    2.6223   -0.0428    3.5423 H   0  0  0  0  0  0  0  0  0  0  0  0
    3.0739   -1.7530    1.8026 H   0  0  0  0  0  0  0  0  0  0  0  0
    5.1979   -1.3355   -2.5756 H   0  0  0  0  0  0  0  0  0  0  0  0
    5.8097    0.9591   -3.6367 H   0  0  0  0  0  0  0  0  0  0  0  0
   -2.0201    0.3592   -0.5327 H   0  0  0  0  0  0  0  0  0  0  0  0
    0.2421    2.2984    0.0154 H   0  0  0  0  0  0  0  0  0  0  0  0
    0.0010    1.2876   -1.3850 H   0  0  0  0  0  0  0  0  0  0  0  0
   -0.9841    3.8114   -1.3282 H   0  0  0  0  0  0  0  0  0  0  0  0
   -1.9203    2.5256   -2.0599 H   0  0  0  0  0  0  0  0  0  0  0  0
   -3.5429    2.9617   -0.5238 H   0  0  0  0  0  0  0  0  0  0  0  0
   -2.4816    3.9702    0.4562 H   0  0  0  0  0  0  0  0  0  0  0  0
   -1.8914    2.2640    1.8583 H   0  0  0  0  0  0  0  0  0  0  0  0
   -3.2991    1.3991    1.2307 H   0  0  0  0  0  0  0  0  0  0  0  0
  1  2  1  0
  2  3  2  0
  3  4  1  0
  4  5  2  0
  5  6  1  0
  6  7  2  0
  7  8  1  0
  8  9  2  0
  9 10  1  0
 10 11  2  0
 11 12  1  0
 12 13  1  0
 13 14  1  0
 14 15  2  0
 15 16  1  0
 16 17  2  0
 16 18  1  0
 18 19  1  0
 19 20  2  0
 20 21  1  0
 21 22  1  0
 22 23  2  0
 11 24  1  0
 24 25  1  0
 25 26  1  0
 26 27  1  0
 27 28  1  0
 28 29  1  0
  7  2  1  0
 24  8  1  0
 23 14  1  0
 22 18  1  0
 29 25  1  0
  3 30  1  0
  4 31  1  0
  5 32  1  0
  6 33  1  0
 13 34  1  0
 13 35  1  0
 15 36  1  0
 19 37  1  0
 20 38  1  0
 25 39  1  0
 26 40  1  0
 26 41  1  0
 27 42  1  0
 27 43  1  0
 28 44  1  0
 28 45  1  0
 29 46  1  0
 29 47  1  0
M  END
>  <Unnamed: 0>  (218) 
1279

>  <ID>  (218) 
TRAIN_1279

>  <Canonical_Smiles>  (218) 
Clc1ccccc1c2nnc(SCC3=CC(=O)N4C=CSC4=N3)n2C5CCCC5

>  <Inhibition>  (218) 
77.9

>  <TDC_conf_true_inhibitor>  (218) 
1

>  <TDC_conf_non_inhibitor>  (218) 
0

>  <split>  (218) 
1

$$$$
218
     RDKit          3D

 34 37  0  0  0  0  0  0  0  0999 V2000
    1.1440    0.0718    0.9009 C   0  0  0  0  0  0  0  0  0  0  0  0
    2.0194    0.1277   -0.2640 N   0  0  0  0  0  0  0  0  0  0  0  0
    3.4052    0.2693   -0.2660 C   0  0  0  0  0  0  0  0  0  0  0  0
    4.1029    0.5910   -1.3834 C   0  0  0  0  0  0  0  0  0  0  0  0
    5.4785    0.7475   -1.4637 N   0  0  0  0  0  0  0  0  0  0  0  0
    6.1721    0.5663   -0.3742 C   0  0  0  0  0  0  0  0  0  0  0  0
    5.5440    0.2235    0.8549 C   0  0  0  0  0  0  0  0  0  0  0  0
    6.0763    0.0106    2.0320 N   0  0  0  0  0  0  0  0  0  0  0  0
    5.0112   -0.2792    2.8496 N   0  0  0  0  0  0  0  0  0  0  0  0
    3.8621   -0.2413    2.1820 N   0  0  0  0  0  0  0  0  0  0  0  0
    4.1784    0.0781    0.9005 N   0  0  0  0  0  0  0  0  0  0  0  0
   -0.3110    0.0406    0.5274 C   0  0  0  0  0  0  0  0  0  0  0  0
   -1.1088   -1.0626    0.2888 C   0  0  0  0  0  0  0  0  0  0  0  0
   -2.4462   -0.7033   -0.0546 C   0  0  0  0  0  0  0  0  0  0  0  0
   -3.5752   -1.6432   -0.3521 C   0  0  0  0  0  0  0  0  0  0  0  0
   -4.7453   -0.9254   -1.0434 C   0  0  0  0  0  0  0  0  0  0  0  0
   -5.0728    0.4113   -0.3613 C   0  0  0  0  0  0  0  0  0  0  0  0
   -3.8816    1.3819   -0.4048 C   0  0  0  0  0  0  0  0  0  0  0  0
   -2.6104    0.6679   -0.0622 C   0  0  0  0  0  0  0  0  0  0  0  0
   -1.1810    1.5032    0.3226 S   0  0  0  0  0  0  0  0  0  0  0  0
    1.3394    0.9321    1.5530 H   0  0  0  0  0  0  0  0  0  0  0  0
    1.3659   -0.8335    1.4787 H   0  0  0  0  0  0  0  0  0  0  0  0
    1.5530    0.4687   -1.1023 H   0  0  0  0  0  0  0  0  0  0  0  0
    3.5781    0.7466   -2.3236 H   0  0  0  0  0  0  0  0  0  0  0  0
    7.2674    0.6815   -0.4019 H   0  0  0  0  0  0  0  0  0  0  0  0
   -0.7461   -2.0817    0.3595 H   0  0  0  0  0  0  0  0  0  0  0  0
   -3.2272   -2.4683   -0.9838 H   0  0  0  0  0  0  0  0  0  0  0  0
   -3.9237   -2.0780    0.5929 H   0  0  0  0  0  0  0  0  0  0  0  0
   -4.4921   -0.7383   -2.0948 H   0  0  0  0  0  0  0  0  0  0  0  0
   -5.6275   -1.5754   -1.0370 H   0  0  0  0  0  0  0  0  0  0  0  0
   -5.9398    0.8760   -0.8441 H   0  0  0  0  0  0  0  0  0  0  0  0
   -5.3523    0.2204    0.6830 H   0  0  0  0  0  0  0  0  0  0  0  0
   -3.7921    1.7998   -1.4151 H   0  0  0  0  0  0  0  0  0  0  0  0
   -4.0650    2.2144    0.2839 H   0  0  0  0  0  0  0  0  0  0  0  0
  1  2  1  0
  2  3  1  0
  3  4  2  0
  4  5  1  0
  5  6  2  0
  6  7  1  0
  7  8  2  0
  8  9  1  0
  9 10  2  0
 10 11  1  0
  1 12  1  0
 12 13  2  0
 13 14  1  0
 14 15  1  0
 15 16  1  0
 16 17  1  0
 17 18  1  0
 18 19  1  0
 19 20  1  0
 11  3  1  0
 11  7  1  0
 20 12  1  0
 19 14  2  0
  1 21  1  0
  1 22  1  0
  2 23  1  0
  4 24  1  0
  6 25  1  0
 13 26  1  0
 15 27  1  0
 15 28  1  0
 16 29  1  0
 16 30  1  0
 17 31  1  0
 17 32  1  0
 18 33  1  0
 18 34  1  0
M  END
>  <Unnamed: 0>  (219) 
1291

>  <ID>  (219) 
TRAIN_1291

>  <Canonical_Smiles>  (219) 
C(Nc1cncc2nnnn12)c3cc4CCCCc4s3

>  <Inhibition>  (219) 
41.8

>  <TDC_conf_true_inhibitor>  (219) 
1

>  <TDC_conf_non_inhibitor>  (219) 
0

>  <split>  (219) 
1

$$$$
219
     RDKit          3D

 36 38  0  0  0  0  0  0  0  0999 V2000
   -2.7385    2.7150    0.3891 C   0  0  0  0  0  0  0  0  0  0  0  0
   -3.3792    1.3254    0.3674 C   0  0  0  0  0  0  0  0  0  0  0  0
   -4.6671    1.3141   -0.4561 C   0  0  0  0  0  0  0  0  0  0  0  0
   -2.4487    0.2996   -0.1013 N   0  0  0  0  0  0  0  0  0  0  0  0
   -1.7589    0.2771   -1.2801 C   0  0  0  0  0  0  0  0  0  0  0  0
   -1.0475   -0.8954   -1.2844 C   0  0  0  0  0  0  0  0  0  0  0  0
   -1.3583   -1.5213   -0.0512 C   0  0  0  0  0  0  0  0  0  0  0  0
   -0.8445   -2.8238    0.4705 C   0  0  0  0  0  0  0  0  0  0  0  0
    0.5981   -2.6070    1.5677 S   0  0  0  0  0  0  0  0  0  0  0  0
    1.7986   -2.0488    0.3672 C   0  0  0  0  0  0  0  0  0  0  0  0
    1.8863   -2.8023   -0.7576 N   0  0  0  0  0  0  0  0  0  0  0  0
    2.7852   -2.4935   -1.7286 N   0  0  0  0  0  0  0  0  0  0  0  0
    3.5999   -1.4361   -1.5520 C   0  0  0  0  0  0  0  0  0  0  0  0
    3.5591   -0.6195   -0.4278 C   0  0  0  0  0  0  0  0  0  0  0  0
    4.4123    0.4901   -0.2957 C   0  0  0  0  0  0  0  0  0  0  0  0
    4.3411    1.3130    0.8270 C   0  0  0  0  0  0  0  0  0  0  0  0
    3.4245    1.0309    1.8320 C   0  0  0  0  0  0  0  0  0  0  0  0
    2.5774   -0.0728    1.7138 C   0  0  0  0  0  0  0  0  0  0  0  0
    2.6247   -0.9245    0.5815 C   0  0  0  0  0  0  0  0  0  0  0  0
   -2.2310   -0.7914    0.6583 N   0  0  0  0  0  0  0  0  0  0  0  0
   -2.4996    3.0692   -0.6192 H   0  0  0  0  0  0  0  0  0  0  0  0
   -3.4167    3.4428    0.8446 H   0  0  0  0  0  0  0  0  0  0  0  0
   -1.8076    2.7110    0.9681 H   0  0  0  0  0  0  0  0  0  0  0  0
   -3.6363    1.0599    1.4016 H   0  0  0  0  0  0  0  0  0  0  0  0
   -5.3987    2.0199   -0.0464 H   0  0  0  0  0  0  0  0  0  0  0  0
   -5.1198    0.3165   -0.4519 H   0  0  0  0  0  0  0  0  0  0  0  0
   -4.4822    1.5866   -1.5020 H   0  0  0  0  0  0  0  0  0  0  0  0
   -1.8202    1.0843   -1.9933 H   0  0  0  0  0  0  0  0  0  0  0  0
   -0.3790   -1.2511   -2.0558 H   0  0  0  0  0  0  0  0  0  0  0  0
   -0.5982   -3.5039   -0.3525 H   0  0  0  0  0  0  0  0  0  0  0  0
   -1.6290   -3.3167    1.0558 H   0  0  0  0  0  0  0  0  0  0  0  0
    4.2954   -1.2611   -2.3663 H   0  0  0  0  0  0  0  0  0  0  0  0
    5.1352    0.7280   -1.0739 H   0  0  0  0  0  0  0  0  0  0  0  0
    4.9980    2.1733    0.9156 H   0  0  0  0  0  0  0  0  0  0  0  0
    3.3612    1.6702    2.7072 H   0  0  0  0  0  0  0  0  0  0  0  0
    1.8639   -0.2577    2.5157 H   0  0  0  0  0  0  0  0  0  0  0  0
  1  2  1  0
  2  3  1  0
  2  4  1  0
  4  5  1  0
  5  6  2  0
  6  7  1  0
  7  8  1  0
  8  9  1  0
  9 10  1  0
 10 11  2  0
 11 12  1  0
 12 13  2  0
 13 14  1  0
 14 15  2  0
 15 16  1  0
 16 17  2  0
 17 18  1  0
 18 19  2  0
  7 20  2  0
 20  4  1  0
 19 10  1  0
 19 14  1  0
  1 21  1  0
  1 22  1  0
  1 23  1  0
  2 24  1  0
  3 25  1  0
  3 26  1  0
  3 27  1  0
  5 28  1  0
  6 29  1  0
  8 30  1  0
  8 31  1  0
 13 32  1  0
 15 33  1  0
 16 34  1  0
 17 35  1  0
 18 36  1  0
M  END
>  <Unnamed: 0>  (220) 
1294

>  <ID>  (220) 
TRAIN_1294

>  <Canonical_Smiles>  (220) 
CC(C)n1ccc(CSc2nncc3ccccc23)n1

>  <Inhibition>  (220) 
34.5

>  <TDC_conf_true_inhibitor>  (220) 
0

>  <TDC_conf_non_inhibitor>  (220) 
1

>  <split>  (220) 
1

$$$$
220
     RDKit          3D

 50 51  0  0  0  0  0  0  0  0999 V2000
   -5.2282    0.1638    2.0267 C   0  0  0  0  0  0  0  0  0  0  0  0
   -4.8249    0.3464    0.5457 C   0  0  0  0  0  0  0  0  0  0  0  0
   -5.8595   -0.4232   -0.3042 C   0  0  0  0  0  0  0  0  0  0  0  0
   -4.9243    1.8535    0.2260 C   0  0  0  0  0  0  0  0  0  0  0  0
   -3.4094   -0.1578    0.2204 C   0  0  0  0  0  0  0  0  0  0  0  0
   -2.9086   -0.0724   -1.0886 C   0  0  0  0  0  0  0  0  0  0  0  0
   -1.6216   -0.5219   -1.4165 C   0  0  0  0  0  0  0  0  0  0  0  0
   -0.7758   -1.0957   -0.4536 C   0  0  0  0  0  0  0  0  0  0  0  0
   -1.2687   -1.1559    0.8578 C   0  0  0  0  0  0  0  0  0  0  0  0
   -2.5557   -0.7028    1.1866 C   0  0  0  0  0  0  0  0  0  0  0  0
    0.6439   -1.5692   -0.8112 C   0  0  0  0  0  0  0  0  0  0  0  0
    1.2304   -2.6169    0.1676 C   0  0  0  0  0  0  0  0  0  0  0  0
    0.6489   -2.2810   -2.1916 C   0  0  0  0  0  0  0  0  0  0  0  0
    1.5207   -0.3869   -0.9276 N   0  0  0  0  0  0  0  0  0  0  0  0
    1.9400    0.3809    0.1467 C   0  0  0  0  0  0  0  0  0  0  0  0
    1.7540    0.0779    1.3215 O   0  0  0  0  0  0  0  0  0  0  0  0
    2.6721    1.6450   -0.2464 C   0  0  0  0  0  0  0  0  0  0  0  0
    4.0076    1.7522    0.3061 N   0  0  0  0  0  0  0  0  0  0  0  0
    4.7801    0.8292    0.9461 C   0  0  0  0  0  0  0  0  0  0  0  0
    5.9669    1.4872    1.1827 C   0  0  0  0  0  0  0  0  0  0  0  0
    7.2017    1.0257    1.8591 C   0  0  0  0  0  0  0  0  0  0  0  0
    8.3595    1.2327    1.0522 O   0  0  0  0  0  0  0  0  0  0  0  0
    5.8878    2.7529    0.6618 N   0  0  0  0  0  0  0  0  0  0  0  0
    4.6884    2.9007    0.1183 N   0  0  0  0  0  0  0  0  0  0  0  0
   -5.2101   -0.8926    2.3213 H   0  0  0  0  0  0  0  0  0  0  0  0
   -4.5628    0.7178    2.6998 H   0  0  0  0  0  0  0  0  0  0  0  0
   -6.2457    0.5310    2.2071 H   0  0  0  0  0  0  0  0  0  0  0  0
   -5.7958   -1.5019   -0.1198 H   0  0  0  0  0  0  0  0  0  0  0  0
   -5.7170   -0.2641   -1.3784 H   0  0  0  0  0  0  0  0  0  0  0  0
   -6.8815   -0.1045   -0.0668 H   0  0  0  0  0  0  0  0  0  0  0  0
   -4.7638    2.0619   -0.8373 H   0  0  0  0  0  0  0  0  0  0  0  0
   -4.1792    2.4267    0.7901 H   0  0  0  0  0  0  0  0  0  0  0  0
   -5.9140    2.2483    0.4840 H   0  0  0  0  0  0  0  0  0  0  0  0
   -3.5165    0.3549   -1.8834 H   0  0  0  0  0  0  0  0  0  0  0  0
   -1.3022   -0.4039   -2.4480 H   0  0  0  0  0  0  0  0  0  0  0  0
   -0.6540   -1.5366    1.6702 H   0  0  0  0  0  0  0  0  0  0  0  0
   -2.8553   -0.7837    2.2281 H   0  0  0  0  0  0  0  0  0  0  0  0
    0.6028   -3.5154    0.2019 H   0  0  0  0  0  0  0  0  0  0  0  0
    2.2364   -2.9222   -0.1455 H   0  0  0  0  0  0  0  0  0  0  0  0
    1.3279   -2.2573    1.1948 H   0  0  0  0  0  0  0  0  0  0  0  0
   -0.0616   -3.1154   -2.2142 H   0  0  0  0  0  0  0  0  0  0  0  0
    0.4008   -1.6041   -3.0160 H   0  0  0  0  0  0  0  0  0  0  0  0
    1.6445   -2.6795   -2.4238 H   0  0  0  0  0  0  0  0  0  0  0  0
    1.4823    0.0788   -1.8244 H   0  0  0  0  0  0  0  0  0  0  0  0
    2.7759    1.7217   -1.3344 H   0  0  0  0  0  0  0  0  0  0  0  0
    2.0922    2.5025    0.1121 H   0  0  0  0  0  0  0  0  0  0  0  0
    4.4424   -0.1690    1.1860 H   0  0  0  0  0  0  0  0  0  0  0  0
    7.3407    1.5719    2.7968 H   0  0  0  0  0  0  0  0  0  0  0  0
    7.1452   -0.0420    2.0923 H   0  0  0  0  0  0  0  0  0  0  0  0
    8.2430    2.1121    0.6466 H   0  0  0  0  0  0  0  0  0  0  0  0
  1  2  1  0
  2  3  1  0
  2  4  1  0
  2  5  1  0
  5  6  2  0
  6  7  1  0
  7  8  2  0
  8  9  1  0
  9 10  2  0
  8 11  1  0
 11 12  1  0
 11 13  1  0
 11 14  1  0
 14 15  1  0
 15 16  2  0
 15 17  1  0
 17 18  1  0
 18 19  1  0
 19 20  2  0
 20 21  1  0
 21 22  1  0
 20 23  1  0
 23 24  2  0
 10  5  1  0
 24 18  1  0
  1 25  1  0
  1 26  1  0
  1 27  1  0
  3 28  1  0
  3 29  1  0
  3 30  1  0
  4 31  1  0
  4 32  1  0
  4 33  1  0
  6 34  1  0
  7 35  1  0
  9 36  1  0
 10 37  1  0
 12 38  1  0
 12 39  1  0
 12 40  1  0
 13 41  1  0
 13 42  1  0
 13 43  1  0
 14 44  1  0
 17 45  1  0
 17 46  1  0
 19 47  1  0
 21 48  1  0
 21 49  1  0
 22 50  1  0
M  END
>  <Unnamed: 0>  (221) 
1297

>  <ID>  (221) 
TRAIN_1297

>  <Canonical_Smiles>  (221) 
CC(C)(C)c1ccc(cc1)C(C)(C)NC(=O)Cn2cc(CO)nn2

>  <Inhibition>  (221) 
43.5

>  <TDC_conf_true_inhibitor>  (221) 
0

>  <TDC_conf_non_inhibitor>  (221) 
1

>  <split>  (221) 
1

$$$$
221
     RDKit          3D

 43 45  0  0  0  0  0  0  0  0999 V2000
   -4.6178   -1.6921    1.9904 C   0  0  0  0  0  0  0  0  0  0  0  0
   -3.5985   -0.8755    1.3586 N   0  0  0  0  0  0  0  0  0  0  0  0
   -2.2800   -0.9928    1.7851 C   0  0  0  0  0  0  0  0  0  0  0  0
   -1.8932   -1.7364    2.6800 O   0  0  0  0  0  0  0  0  0  0  0  0
   -1.2530   -0.1204    1.0757 C   0  0  0  0  0  0  0  0  0  0  0  0
   -1.5766    0.7341    0.1487 N   0  0  0  0  0  0  0  0  0  0  0  0
   -2.9192    0.8287   -0.2391 C   0  0  0  0  0  0  0  0  0  0  0  0
   -3.2327    1.7472   -1.2467 C   0  0  0  0  0  0  0  0  0  0  0  0
   -4.5441    1.8984   -1.6935 C   0  0  0  0  0  0  0  0  0  0  0  0
   -5.5559    1.1270   -1.1318 C   0  0  0  0  0  0  0  0  0  0  0  0
   -5.2573    0.2061   -0.1239 C   0  0  0  0  0  0  0  0  0  0  0  0
   -3.9395    0.0479    0.3320 C   0  0  0  0  0  0  0  0  0  0  0  0
    0.1805   -0.2899    1.5725 C   0  0  0  0  0  0  0  0  0  0  0  0
    1.1806    0.3647    0.6983 N   0  0  0  0  0  0  0  0  0  0  0  0
    2.4811    0.4614    1.3936 C   0  0  0  0  0  0  0  0  0  0  0  0
    3.5858    1.0920    0.5169 C   0  0  0  0  0  0  0  0  0  0  0  0
    3.7276    0.4077   -0.8061 N   0  0  0  0  0  0  0  0  0  0  0  0
    2.3949    0.3011   -1.4784 C   0  0  0  0  0  0  0  0  0  0  0  0
    1.3579   -0.3810   -0.5691 C   0  0  0  0  0  0  0  0  0  0  0  0
    4.6919   -0.9861   -0.8581 S   0  0  0  0  0  6  0  0  0  0  0  0
    4.5481   -1.5866   -2.1672 O   0  0  0  0  0  0  0  0  0  0  0  0
    4.4585   -1.7549    0.3444 O   0  0  0  0  0  0  0  0  0  0  0  0
    6.3274   -0.2871   -0.7752 C   0  0  0  0  0  0  0  0  0  0  0  0
   -5.0997   -2.3221    1.2361 H   0  0  0  0  0  0  0  0  0  0  0  0
   -5.3561   -1.0442    2.4732 H   0  0  0  0  0  0  0  0  0  0  0  0
   -4.1934   -2.3485    2.7554 H   0  0  0  0  0  0  0  0  0  0  0  0
   -2.4386    2.3484   -1.6831 H   0  0  0  0  0  0  0  0  0  0  0  0
   -4.7717    2.6163   -2.4772 H   0  0  0  0  0  0  0  0  0  0  0  0
   -6.5807    1.2414   -1.4773 H   0  0  0  0  0  0  0  0  0  0  0  0
   -6.0765   -0.3748    0.2878 H   0  0  0  0  0  0  0  0  0  0  0  0
    0.2040    0.1723    2.5677 H   0  0  0  0  0  0  0  0  0  0  0  0
    0.4086   -1.3559    1.6897 H   0  0  0  0  0  0  0  0  0  0  0  0
    2.3667    1.0904    2.2850 H   0  0  0  0  0  0  0  0  0  0  0  0
    2.7978   -0.5276    1.7436 H   0  0  0  0  0  0  0  0  0  0  0  0
    3.3476    2.1455    0.3222 H   0  0  0  0  0  0  0  0  0  0  0  0
    4.5384    1.0895    1.0555 H   0  0  0  0  0  0  0  0  0  0  0  0
    2.0622    1.3154   -1.7342 H   0  0  0  0  0  0  0  0  0  0  0  0
    2.4804   -0.2333   -2.4298 H   0  0  0  0  0  0  0  0  0  0  0  0
    1.6643   -1.4154   -0.3671 H   0  0  0  0  0  0  0  0  0  0  0  0
    0.4137   -0.4269   -1.1217 H   0  0  0  0  0  0  0  0  0  0  0  0
    6.4530    0.4170   -1.5998 H   0  0  0  0  0  0  0  0  0  0  0  0
    6.4686    0.2040    0.1880 H   0  0  0  0  0  0  0  0  0  0  0  0
    7.0448   -1.1048   -0.8769 H   0  0  0  0  0  0  0  0  0  0  0  0
  1  2  1  0
  2  3  1  0
  3  4  2  0
  3  5  1  0
  5  6  2  0
  6  7  1  0
  7  8  2  0
  8  9  1  0
  9 10  2  0
 10 11  1  0
 11 12  2  0
  5 13  1  0
 13 14  1  0
 14 15  1  0
 15 16  1  0
 16 17  1  0
 17 18  1  0
 18 19  1  0
 17 20  1  0
 20 21  2  0
 20 22  2  0
 20 23  1  0
 12  2  1  0
 12  7  1  0
 19 14  1  0
  1 24  1  0
  1 25  1  0
  1 26  1  0
  8 27  1  0
  9 28  1  0
 10 29  1  0
 11 30  1  0
 13 31  1  0
 13 32  1  0
 15 33  1  0
 15 34  1  0
 16 35  1  0
 16 36  1  0
 18 37  1  0
 18 38  1  0
 19 39  1  0
 19 40  1  0
 23 41  1  0
 23 42  1  0
 23 43  1  0
M  END
>  <Unnamed: 0>  (222) 
1325

>  <ID>  (222) 
TRAIN_1325

>  <Canonical_Smiles>  (222) 
CN1C(=O)C(=Nc2ccccc12)CN3CCN(CC3)S(=O)(=O)C

>  <Inhibition>  (222) 
14.6

>  <TDC_conf_true_inhibitor>  (222) 
0

>  <TDC_conf_non_inhibitor>  (222) 
1

>  <split>  (222) 
1

$$$$
222
     RDKit          3D

 39 40  0  0  0  0  0  0  0  0999 V2000
    4.7115   -1.4423    0.6426 C   0  0  0  0  0  0  0  0  0  0  0  0
    3.4037   -2.1285    0.2959 C   0  0  0  0  0  0  0  0  0  0  0  0
    2.5533   -1.2320   -0.4306 O   0  0  0  0  0  0  0  0  0  0  0  0
    1.7597   -0.4145    0.3235 C   0  0  0  0  0  0  0  0  0  0  0  0
    1.7604   -0.4120    1.5492 O   0  0  0  0  0  0  0  0  0  0  0  0
    0.9120    0.4695   -0.4888 C   0  0  0  0  0  0  0  0  0  0  0  0
    1.1079    0.7937   -1.8272 C   0  0  0  0  0  0  0  0  0  0  0  0
    2.1528    0.3760   -2.8022 C   0  0  0  0  0  0  0  0  0  0  0  0
    0.1193    1.6638   -2.1989 N   0  0  0  0  0  0  0  0  0  0  0  0
   -0.7143    1.9493   -1.1444 C   0  0  0  0  0  0  0  0  0  0  0  0
   -1.8067    2.8845   -1.2897 C   0  0  0  0  0  0  0  0  0  0  0  0
   -2.5760    3.2160   -0.3039 N   0  0  0  0  0  0  0  0  0  0  0  0
   -3.5340    4.1333   -0.7547 O   0  0  0  0  0  0  0  0  0  0  0  0
   -0.2776    1.1845   -0.0601 C   0  0  0  0  0  0  0  0  0  0  0  0
   -0.8983    1.1172    1.3113 C   0  0  0  0  0  0  0  0  0  0  0  0
   -1.7497   -0.1349    1.3426 C   0  0  0  0  0  0  0  0  0  0  0  0
   -1.3340   -1.2614    2.0708 C   0  0  0  0  0  0  0  0  0  0  0  0
   -2.1140   -2.4197    2.1096 C   0  0  0  0  0  0  0  0  0  0  0  0
   -3.3273   -2.4667    1.4259 C   0  0  0  0  0  0  0  0  0  0  0  0
   -3.7574   -1.3519    0.7110 C   0  0  0  0  0  0  0  0  0  0  0  0
   -5.2597   -1.4044   -0.1281 Cl  0  0  0  0  0  0  0  0  0  0  0  0
   -2.9821   -0.1928    0.6709 C   0  0  0  0  0  0  0  0  0  0  0  0
    4.5429   -0.5828    1.2989 H   0  0  0  0  0  0  0  0  0  0  0  0
    5.3926   -2.1360    1.1436 H   0  0  0  0  0  0  0  0  0  0  0  0
    5.1970   -1.0615   -0.2620 H   0  0  0  0  0  0  0  0  0  0  0  0
    2.9043   -2.5192    1.1899 H   0  0  0  0  0  0  0  0  0  0  0  0
    3.6005   -2.9832   -0.3596 H   0  0  0  0  0  0  0  0  0  0  0  0
    2.0440   -0.6850   -3.0478 H   0  0  0  0  0  0  0  0  0  0  0  0
    3.1532    0.5423   -2.3903 H   0  0  0  0  0  0  0  0  0  0  0  0
    2.0818    0.9443   -3.7357 H   0  0  0  0  0  0  0  0  0  0  0  0
    0.0296    2.0651   -3.1234 H   0  0  0  0  0  0  0  0  0  0  0  0
   -1.9648    3.3230   -2.2924 H   0  0  0  0  0  0  0  0  0  0  0  0
   -4.0517    4.3078    0.0543 H   0  0  0  0  0  0  0  0  0  0  0  0
   -0.1278    1.0921    2.0888 H   0  0  0  0  0  0  0  0  0  0  0  0
   -1.5137    1.9900    1.5433 H   0  0  0  0  0  0  0  0  0  0  0  0
   -0.3933   -1.2424    2.6187 H   0  0  0  0  0  0  0  0  0  0  0  0
   -1.7734   -3.2828    2.6758 H   0  0  0  0  0  0  0  0  0  0  0  0
   -3.9316   -3.3686    1.4579 H   0  0  0  0  0  0  0  0  0  0  0  0
   -3.3393    0.6701    0.1154 H   0  0  0  0  0  0  0  0  0  0  0  0
  1  2  1  0
  2  3  1  0
  3  4  1  0
  4  5  2  0
  4  6  1  0
  6  7  2  0
  7  8  1  0
  7  9  1  0
  9 10  1  0
 10 11  1  0
 11 12  2  0
 12 13  1  0
 10 14  2  0
 14 15  1  0
 15 16  1  0
 16 17  2  0
 17 18  1  0
 18 19  2  0
 19 20  1  0
 20 21  1  0
 20 22  2  0
 14  6  1  0
 22 16  1  0
  1 23  1  0
  1 24  1  0
  1 25  1  0
  2 26  1  0
  2 27  1  0
  8 28  1  0
  8 29  1  0
  8 30  1  0
  9 31  1  0
 11 32  1  0
 13 33  1  0
 15 34  1  0
 15 35  1  0
 17 36  1  0
 18 37  1  0
 19 38  1  0
 22 39  1  0
M  END
>  <Unnamed: 0>  (223) 
1328

>  <ID>  (223) 
TRAIN_1328

>  <Canonical_Smiles>  (223) 
CCOC(=O)c1c(C)[nH]c(\C=N\O)c1Cc2cccc(Cl)c2

>  <Inhibition>  (223) 
74.6

>  <TDC_conf_true_inhibitor>  (223) 
1

>  <TDC_conf_non_inhibitor>  (223) 
0

>  <split>  (223) 
1

$$$$
223
     RDKit          3D

 32 33  0  0  0  0  0  0  0  0999 V2000
   -0.6674    2.5562    0.7051 C   0  0  0  0  0  0  0  0  0  0  0  0
   -0.7455    1.0316    0.5844 C   0  0  0  0  0  0  0  0  0  0  0  0
    0.5829    0.4969    0.4435 O   0  0  0  0  0  0  0  0  0  0  0  0
    1.2788    0.3256    1.5922 C   0  0  0  0  0  0  0  0  0  0  0  0
    0.9058    0.6289    2.7129 O   0  0  0  0  0  0  0  0  0  0  0  0
    2.5919   -0.2861    1.3093 C   0  0  0  0  0  0  0  0  0  0  0  0
    2.9940   -0.6906    0.0396 C   0  0  0  0  0  0  0  0  0  0  0  0
    4.2496   -1.2485   -0.0881 C   0  0  0  0  0  0  0  0  0  0  0  0
    5.0844   -1.4096    0.9583 N   0  0  0  0  0  0  0  0  0  0  0  0
    4.6900   -1.0172    2.2012 N   0  0  0  0  0  0  0  0  0  0  0  0
    3.4668   -0.4703    2.3645 C   0  0  0  0  0  0  0  0  0  0  0  0
   -1.5282    0.5115   -0.6189 C   0  0  0  0  0  0  0  0  0  0  0  0
   -1.6632    1.2888   -1.7860 C   0  0  0  0  0  0  0  0  0  0  0  0
   -2.3602    0.8147   -2.8990 C   0  0  0  0  0  0  0  0  0  0  0  0
   -2.9296   -0.4513   -2.8776 C   0  0  0  0  0  0  0  0  0  0  0  0
   -2.7950   -1.2495   -1.7445 C   0  0  0  0  0  0  0  0  0  0  0  0
   -2.0927   -0.7924   -0.6105 C   0  0  0  0  0  0  0  0  0  0  0  0
   -1.9700   -1.7171    0.5852 C   0  0  0  0  0  0  0  0  0  0  0  0
   -2.5097   -2.9521    0.3759 F   0  0  0  0  0  0  0  0  0  0  0  0
   -0.6777   -1.9446    0.9498 F   0  0  0  0  0  0  0  0  0  0  0  0
   -2.5973   -1.2276    1.6897 F   0  0  0  0  0  0  0  0  0  0  0  0
   -0.0422    2.9936   -0.0809 H   0  0  0  0  0  0  0  0  0  0  0  0
   -1.6613    3.0136    0.6697 H   0  0  0  0  0  0  0  0  0  0  0  0
   -0.1985    2.8416    1.6530 H   0  0  0  0  0  0  0  0  0  0  0  0
   -1.2224    0.6568    1.4972 H   0  0  0  0  0  0  0  0  0  0  0  0
    2.3562   -0.5833   -0.8301 H   0  0  0  0  0  0  0  0  0  0  0  0
    4.6319   -1.5889   -1.0440 H   0  0  0  0  0  0  0  0  0  0  0  0
    3.2216   -0.1853    3.3823 H   0  0  0  0  0  0  0  0  0  0  0  0
   -1.2226    2.2807   -1.8550 H   0  0  0  0  0  0  0  0  0  0  0  0
   -2.4548    1.4377   -3.7854 H   0  0  0  0  0  0  0  0  0  0  0  0
   -3.4732   -0.8200   -3.7440 H   0  0  0  0  0  0  0  0  0  0  0  0
   -3.2422   -2.2435   -1.7500 H   0  0  0  0  0  0  0  0  0  0  0  0
  1  2  1  0
  2  3  1  0
  3  4  1  0
  4  5  2  0
  4  6  1  0
  6  7  2  0
  7  8  1  0
  8  9  2  0
  9 10  1  0
 10 11  2  0
  2 12  1  0
 12 13  2  0
 13 14  1  0
 14 15  2  0
 15 16  1  0
 16 17  2  0
 17 18  1  0
 18 19  1  0
 18 20  1  0
 18 21  1  0
 11  6  1  0
 17 12  1  0
  1 22  1  0
  1 23  1  0
  1 24  1  0
  2 25  1  0
  7 26  1  0
  8 27  1  0
 11 28  1  0
 13 29  1  0
 14 30  1  0
 15 31  1  0
 16 32  1  0
M  END
>  <Unnamed: 0>  (224) 
1340

>  <ID>  (224) 
TRAIN_1340

>  <Canonical_Smiles>  (224) 
CC(OC(=O)c1ccnnc1)c2ccccc2C(F)(F)F

>  <Inhibition>  (224) 
19.5

>  <TDC_conf_true_inhibitor>  (224) 
0

>  <TDC_conf_non_inhibitor>  (224) 
1

>  <split>  (224) 
1

$$$$
224
     RDKit          3D

 48 51  0  0  0  0  0  0  0  0999 V2000
    3.3295   -0.4347   -2.6700 C   0  0  0  0  0  0  0  0  0  0  0  0
    3.3776   -1.2511   -1.4319 C   0  0  0  0  0  0  0  0  0  0  0  0
    4.3453   -2.1738   -1.3052 N   0  0  0  0  0  0  0  0  0  0  0  0
    4.0912   -2.7548   -0.1193 N   0  0  0  0  0  0  0  0  0  0  0  0
    4.9386   -3.8269    0.3415 C   0  0  0  0  0  0  0  0  0  0  0  0
    3.0109   -2.2359    0.5197 C   0  0  0  0  0  0  0  0  0  0  0  0
    2.5214   -1.2398   -0.2983 C   0  0  0  0  0  0  0  0  0  0  0  0
    1.3569   -0.3991   -0.0281 C   0  0  0  0  0  0  0  0  0  0  0  0
    1.0353    0.8202   -0.6533 C   0  0  0  0  0  0  0  0  0  0  0  0
   -0.1095    1.2737   -0.0239 C   0  0  0  0  0  0  0  0  0  0  0  0
   -0.7769    2.6581   -0.2990 C   0  0  0  0  0  0  0  0  0  0  0  0
   -0.4541    3.4299   -1.3952 C   0  0  0  0  0  0  0  0  0  0  0  0
   -1.2428    4.5365   -1.3304 N   0  0  0  0  0  0  0  0  0  0  0  0
   -1.2906    5.6279   -2.2723 C   0  0  0  0  0  0  0  0  0  0  0  0
   -2.0348    4.5627   -0.2492 N   0  0  0  0  0  0  0  0  0  0  0  0
   -1.7279    3.4380    0.4152 C   0  0  0  0  0  0  0  0  0  0  0  0
   -2.3314    3.2442    1.7566 C   0  0  0  0  0  0  0  0  0  0  0  0
   -0.4775    0.2543    0.8221 N   0  0  0  0  0  0  0  0  0  0  0  0
   -1.7703    0.0443    1.4667 C   0  0  0  0  0  0  0  0  0  0  0  0
   -2.2701   -1.3820    1.3533 C   0  0  0  0  0  0  0  0  0  0  0  0
   -2.8319   -1.8072    0.1315 C   0  0  0  0  0  0  0  0  0  0  0  0
   -3.2825   -3.1176   -0.0274 C   0  0  0  0  0  0  0  0  0  0  0  0
   -3.1716   -4.0111    1.0291 C   0  0  0  0  0  0  0  0  0  0  0  0
   -3.6056   -5.2689    0.8751 F   0  0  0  0  0  0  0  0  0  0  0  0
   -2.6192   -3.6222    2.2415 C   0  0  0  0  0  0  0  0  0  0  0  0
   -2.1660   -2.3110    2.4042 C   0  0  0  0  0  0  0  0  0  0  0  0
   -1.4953   -1.8900    3.9398 Cl  0  0  0  0  0  0  0  0  0  0  0  0
    0.4650   -0.7114    0.9167 N   0  0  0  0  0  0  0  0  0  0  0  0
    3.9973   -0.8364   -3.4397 H   0  0  0  0  0  0  0  0  0  0  0  0
    3.6412    0.5941   -2.4631 H   0  0  0  0  0  0  0  0  0  0  0  0
    2.3185   -0.4227   -3.0891 H   0  0  0  0  0  0  0  0  0  0  0  0
    4.5840   -4.1811    1.3128 H   0  0  0  0  0  0  0  0  0  0  0  0
    5.9598   -3.4465    0.4315 H   0  0  0  0  0  0  0  0  0  0  0  0
    4.8958   -4.6377   -0.3903 H   0  0  0  0  0  0  0  0  0  0  0  0
    2.6729   -2.5969    1.4812 H   0  0  0  0  0  0  0  0  0  0  0  0
    1.5987    1.3493   -1.4052 H   0  0  0  0  0  0  0  0  0  0  0  0
    0.2334    3.2750   -2.2139 H   0  0  0  0  0  0  0  0  0  0  0  0
   -1.0588    6.5542   -1.7402 H   0  0  0  0  0  0  0  0  0  0  0  0
   -2.2959    5.6696   -2.6989 H   0  0  0  0  0  0  0  0  0  0  0  0
   -0.5551    5.4593   -3.0632 H   0  0  0  0  0  0  0  0  0  0  0  0
   -3.2612    2.6718    1.6862 H   0  0  0  0  0  0  0  0  0  0  0  0
   -1.6383    2.7322    2.4292 H   0  0  0  0  0  0  0  0  0  0  0  0
   -2.5713    4.2071    2.2220 H   0  0  0  0  0  0  0  0  0  0  0  0
   -2.5008    0.6851    0.9655 H   0  0  0  0  0  0  0  0  0  0  0  0
   -1.6739    0.3867    2.5000 H   0  0  0  0  0  0  0  0  0  0  0  0
   -2.9072   -1.1195   -0.7103 H   0  0  0  0  0  0  0  0  0  0  0  0
   -3.7097   -3.4489   -0.9693 H   0  0  0  0  0  0  0  0  0  0  0  0
   -2.5431   -4.3471    3.0449 H   0  0  0  0  0  0  0  0  0  0  0  0
  1  2  1  0
  2  3  2  0
  3  4  1  0
  4  5  1  0
  4  6  1  0
  6  7  2  0
  7  8  1  0
  8  9  1  0
  9 10  2  0
 10 11  1  0
 11 12  2  0
 12 13  1  0
 13 14  1  0
 13 15  1  0
 15 16  2  0
 16 17  1  0
 10 18  1  0
 18 19  1  0
 19 20  1  0
 20 21  2  0
 21 22  1  0
 22 23  2  0
 23 24  1  0
 23 25  1  0
 25 26  2  0
 26 27  1  0
 18 28  1  0
  7  2  1  0
 28  8  2  0
 16 11  1  0
 26 20  1  0
  1 29  1  0
  1 30  1  0
  1 31  1  0
  5 32  1  0
  5 33  1  0
  5 34  1  0
  6 35  1  0
  9 36  1  0
 12 37  1  0
 14 38  1  0
 14 39  1  0
 14 40  1  0
 17 41  1  0
 17 42  1  0
 17 43  1  0
 19 44  1  0
 19 45  1  0
 21 46  1  0
 22 47  1  0
 25 48  1  0
M  END
>  <Unnamed: 0>  (225) 
1343

>  <ID>  (225) 
TRAIN_1343

>  <Canonical_Smiles>  (225) 
Cc1nn(C)cc1c2cc(c3cn(C)nc3C)n(Cc4ccc(F)cc4Cl)n2

>  <Inhibition>  (225) 
45.5

>  <TDC_conf_true_inhibitor>  (225) 
1

>  <TDC_conf_non_inhibitor>  (225) 
0

>  <split>  (225) 
1

$$$$
225
     RDKit          3D

 57 61  0  0  0  0  0  0  0  0999 V2000
    6.9438   -2.4454   -3.4576 C   0  0  0  0  0  0  0  0  0  0  0  0
    6.3813   -1.5054   -2.4924 N   0  0  0  0  0  0  0  0  0  0  0  0
    5.5856   -0.4630   -3.1841 C   0  0  0  0  0  0  0  0  0  0  0  0
    4.3818    0.0639   -2.3709 C   0  0  0  0  0  0  0  0  0  0  0  0
    3.4510   -1.0431   -2.1009 N   0  0  0  0  0  0  0  0  0  0  0  0
    4.0676   -2.3324   -1.7468 C   0  0  0  0  0  0  0  0  0  0  0  0
    5.5819   -2.1920   -1.4572 C   0  0  0  0  0  0  0  0  0  0  0  0
    2.2471   -0.6921   -1.4961 C   0  0  0  0  0  0  0  0  0  0  0  0
    1.2366   -1.6368   -1.3099 C   0  0  0  0  0  0  0  0  0  0  0  0
    0.0279   -1.2712   -0.7137 C   0  0  0  0  0  0  0  0  0  0  0  0
   -0.1739    0.0452   -0.3144 C   0  0  0  0  0  0  0  0  0  0  0  0
   -1.4389    0.5423    0.3415 C   0  0  0  0  0  0  0  0  0  0  0  0
   -2.4469   -0.4888    0.4996 N   0  0  0  0  0  0  0  0  0  0  0  0
   -3.2722   -0.5386    1.4763 C   0  0  0  0  0  0  0  0  0  0  0  0
   -3.9896   -1.7176    1.5704 N   0  0  0  0  0  0  0  0  0  0  0  0
   -4.3795   -2.1101    2.7474 C   0  0  0  0  0  0  0  0  0  0  0  0
   -5.0815   -3.4394    2.8585 C   0  0  0  0  0  0  0  0  0  0  0  0
   -4.2330   -1.3633    3.8960 N   0  0  0  0  0  0  0  0  0  0  0  0
   -3.9058   -0.0621    3.7608 C   0  0  0  0  0  0  0  0  0  0  0  0
   -4.0161    1.0923    4.9896 S   0  0  0  0  0  0  0  0  0  0  0  0
   -3.6664    2.3494    3.8862 C   0  0  0  0  0  0  0  0  0  0  0  0
   -3.4312    1.8847    2.6006 C   0  0  0  0  0  0  0  0  0  0  0  0
   -3.2756    2.8482    1.5180 C   0  0  0  0  0  0  0  0  0  0  0  0
   -4.1393    2.8054    0.4162 C   0  0  0  0  0  0  0  0  0  0  0  0
   -3.9959    3.7251   -0.6246 C   0  0  0  0  0  0  0  0  0  0  0  0
   -2.9936    4.6928   -0.5690 C   0  0  0  0  0  0  0  0  0  0  0  0
   -2.1342    4.7459    0.5274 C   0  0  0  0  0  0  0  0  0  0  0  0
   -2.2750    3.8287    1.5706 C   0  0  0  0  0  0  0  0  0  0  0  0
   -3.4867    0.4439    2.5451 C   0  0  0  0  0  0  0  0  0  0  0  0
    0.8689    0.9292   -0.5556 C   0  0  0  0  0  0  0  0  0  0  0  0
    2.0492    0.5933   -1.1295 N   0  0  0  0  0  0  0  0  0  0  0  0
    7.6119   -3.1552   -2.9573 H   0  0  0  0  0  0  0  0  0  0  0  0
    6.1693   -3.0149   -3.9836 H   0  0  0  0  0  0  0  0  0  0  0  0
    7.5501   -1.9160   -4.2012 H   0  0  0  0  0  0  0  0  0  0  0  0
    6.2507    0.3730   -3.4285 H   0  0  0  0  0  0  0  0  0  0  0  0
    5.1929   -0.8496   -4.1350 H   0  0  0  0  0  0  0  0  0  0  0  0
    4.7331    0.5190   -1.4355 H   0  0  0  0  0  0  0  0  0  0  0  0
    3.8865    0.8418   -2.9654 H   0  0  0  0  0  0  0  0  0  0  0  0
    3.9165   -3.0292   -2.5796 H   0  0  0  0  0  0  0  0  0  0  0  0
    3.6073   -2.7771   -0.8560 H   0  0  0  0  0  0  0  0  0  0  0  0
    5.6930   -1.6091   -0.5328 H   0  0  0  0  0  0  0  0  0  0  0  0
    6.0045   -3.1778   -1.2254 H   0  0  0  0  0  0  0  0  0  0  0  0
    1.3655   -2.6593   -1.6464 H   0  0  0  0  0  0  0  0  0  0  0  0
   -0.7508   -2.0177   -0.5780 H   0  0  0  0  0  0  0  0  0  0  0  0
   -1.1390    0.9644    1.3061 H   0  0  0  0  0  0  0  0  0  0  0  0
   -1.8369    1.3286   -0.3056 H   0  0  0  0  0  0  0  0  0  0  0  0
   -6.1588   -3.2682    2.9367 H   0  0  0  0  0  0  0  0  0  0  0  0
   -4.7377   -3.9688    3.7515 H   0  0  0  0  0  0  0  0  0  0  0  0
   -4.8791   -4.0551    1.9779 H   0  0  0  0  0  0  0  0  0  0  0  0
   -4.6454   -1.6978    4.7597 H   0  0  0  0  0  0  0  0  0  0  0  0
   -3.6906    3.3760    4.2284 H   0  0  0  0  0  0  0  0  0  0  0  0
   -4.9258    2.0562    0.3551 H   0  0  0  0  0  0  0  0  0  0  0  0
   -4.6645    3.6832   -1.4809 H   0  0  0  0  0  0  0  0  0  0  0  0
   -2.8820    5.4055   -1.3826 H   0  0  0  0  0  0  0  0  0  0  0  0
   -1.3531    5.5011    0.5684 H   0  0  0  0  0  0  0  0  0  0  0  0
   -1.5912    3.8791    2.4149 H   0  0  0  0  0  0  0  0  0  0  0  0
    0.7860    1.9789   -0.2859 H   0  0  0  0  0  0  0  0  0  0  0  0
  1  2  1  0
  2  3  1  0
  3  4  1  0
  4  5  1  0
  5  6  1  0
  6  7  1  0
  5  8  1  0
  8  9  2  0
  9 10  1  0
 10 11  2  0
 11 12  1  0
 12 13  1  0
 13 14  2  0
 14 15  1  0
 15 16  2  0
 16 17  1  0
 16 18  1  0
 18 19  1  0
 19 20  1  0
 20 21  1  0
 21 22  2  0
 22 23  1  0
 23 24  2  0
 24 25  1  0
 25 26  2  0
 26 27  1  0
 27 28  2  0
 22 29  1  0
 11 30  1  0
 30 31  2  0
  7  2  1  0
 31  8  1  0
 29 14  1  0
 29 19  2  0
 28 23  1  0
  1 32  1  0
  1 33  1  0
  1 34  1  0
  3 35  1  0
  3 36  1  0
  4 37  1  0
  4 38  1  0
  6 39  1  0
  6 40  1  0
  7 41  1  0
  7 42  1  0
  9 43  1  0
 10 44  1  0
 12 45  1  0
 12 46  1  0
 17 47  1  0
 17 48  1  0
 17 49  1  0
 18 50  1  0
 21 51  1  0
 24 52  1  0
 25 53  1  0
 26 54  1  0
 27 55  1  0
 28 56  1  0
 30 57  1  0
M  END
>  <Unnamed: 0>  (226) 
1345

>  <ID>  (226) 
TRAIN_1345

>  <Canonical_Smiles>  (226) 
CN1CCN(CC1)c2ccc(C\N=C/3\N=C(C)Nc4scc(c5ccccc5)c34)cn2

>  <Inhibition>  (226) 
60.3

>  <TDC_conf_true_inhibitor>  (226) 
0

>  <TDC_conf_non_inhibitor>  (226) 
0

>  <split>  (226) 
1

$$$$
226
     RDKit          3D

 47 50  0  0  0  0  0  0  0  0999 V2000
   -2.3317   -0.8754   -2.4869 O   0  0  0  0  0  0  0  0  0  0  0  0
   -3.1290   -0.0652   -1.6308 C   0  0  0  0  0  0  0  0  0  0  0  0
   -2.4518    0.2907   -0.2549 C   0  0  0  0  0  0  0  0  0  0  0  0
   -2.6907   -0.9666    0.6288 C   0  0  0  0  0  0  0  0  0  0  0  0
   -4.0314   -1.4202    0.1253 C   0  0  0  0  0  0  0  0  0  0  0  0
   -4.9341   -2.2664    0.7455 C   0  0  0  0  0  0  0  0  0  0  0  0
   -6.1217   -2.5706    0.0760 C   0  0  0  0  0  0  0  0  0  0  0  0
   -6.3849   -2.0395   -1.1972 C   0  0  0  0  0  0  0  0  0  0  0  0
   -5.4630   -1.1977   -1.8222 C   0  0  0  0  0  0  0  0  0  0  0  0
   -4.2922   -0.8925   -1.1471 C   0  0  0  0  0  0  0  0  0  0  0  0
   -1.0941    0.8900   -0.2387 N   0  0  0  0  0  0  0  0  0  0  0  0
   -0.0362    0.0352   -0.7880 C   0  0  0  0  0  0  0  0  0  0  0  0
    1.3102    0.7612   -0.8218 C   0  0  0  0  0  0  0  0  0  0  0  0
    1.7010    1.2700    0.5630 C   0  0  0  0  0  0  0  0  0  0  0  0
    0.5699    2.1436    1.1033 C   0  0  0  0  0  0  0  0  0  0  0  0
   -0.7490    1.3784    1.1059 C   0  0  0  0  0  0  0  0  0  0  0  0
    2.8718    2.0900    0.4894 O   0  0  0  0  0  0  0  0  0  0  0  0
    4.1051    1.5089    0.5580 C   0  0  0  0  0  0  0  0  0  0  0  0
    5.1681    2.4175    0.5730 C   0  0  0  0  0  0  0  0  0  0  0  0
    6.4912    1.9725    0.6394 C   0  0  0  0  0  0  0  0  0  0  0  0
    6.7625    0.6040    0.6888 C   0  0  0  0  0  0  0  0  0  0  0  0
    5.7037   -0.3091    0.6696 C   0  0  0  0  0  0  0  0  0  0  0  0
    4.3793    0.1423    0.6034 C   0  0  0  0  0  0  0  0  0  0  0  0
    8.1162    0.1376    0.7573 C   0  0  0  0  0  0  0  0  0  0  0  0
    9.2110   -0.2437    0.8142 N   0  0  0  0  0  0  0  0  0  0  0  0
   -2.7292   -1.7618   -2.5239 H   0  0  0  0  0  0  0  0  0  0  0  0
   -3.4455    0.8370   -2.1631 H   0  0  0  0  0  0  0  0  0  0  0  0
   -3.1096    1.0751    0.1592 H   0  0  0  0  0  0  0  0  0  0  0  0
   -2.7277   -0.7111    1.6919 H   0  0  0  0  0  0  0  0  0  0  0  0
   -1.9484   -1.7512    0.4541 H   0  0  0  0  0  0  0  0  0  0  0  0
   -4.7317   -2.6841    1.7267 H   0  0  0  0  0  0  0  0  0  0  0  0
   -6.8507   -3.2287    0.5434 H   0  0  0  0  0  0  0  0  0  0  0  0
   -7.3141   -2.2927   -1.7027 H   0  0  0  0  0  0  0  0  0  0  0  0
   -5.6597   -0.7989   -2.8128 H   0  0  0  0  0  0  0  0  0  0  0  0
   -0.2508   -0.2430   -1.8209 H   0  0  0  0  0  0  0  0  0  0  0  0
    0.0673   -0.8897   -0.2085 H   0  0  0  0  0  0  0  0  0  0  0  0
    1.2670    1.6020   -1.5276 H   0  0  0  0  0  0  0  0  0  0  0  0
    2.0798    0.0885   -1.2164 H   0  0  0  0  0  0  0  0  0  0  0  0
    1.8401    0.4412    1.2684 H   0  0  0  0  0  0  0  0  0  0  0  0
    0.8136    2.4777    2.1193 H   0  0  0  0  0  0  0  0  0  0  0  0
    0.4787    3.0588    0.5030 H   0  0  0  0  0  0  0  0  0  0  0  0
   -0.6822    0.5477    1.8197 H   0  0  0  0  0  0  0  0  0  0  0  0
   -1.5293    2.0580    1.4693 H   0  0  0  0  0  0  0  0  0  0  0  0
    4.9612    3.4851    0.5327 H   0  0  0  0  0  0  0  0  0  0  0  0
    7.2995    2.7008    0.6507 H   0  0  0  0  0  0  0  0  0  0  0  0
    5.8998   -1.3795    0.7031 H   0  0  0  0  0  0  0  0  0  0  0  0
    3.5918   -0.6031    0.5809 H   0  0  0  0  0  0  0  0  0  0  0  0
  1  2  1  0
  2  3  1  0
  3  4  1  0
  4  5  1  0
  5  6  2  0
  6  7  1  0
  7  8  2  0
  8  9  1  0
  9 10  2  0
  3 11  1  0
 11 12  1  0
 12 13  1  0
 13 14  1  0
 14 15  1  0
 15 16  1  0
 14 17  1  0
 17 18  1  0
 18 19  2  0
 19 20  1  0
 20 21  2  0
 21 22  1  0
 22 23  2  0
 21 24  1  0
 24 25  3  0
 10  2  1  0
 10  5  1  0
 16 11  1  0
 23 18  1  0
  1 26  1  0
  2 27  1  0
  3 28  1  0
  4 29  1  0
  4 30  1  0
  6 31  1  0
  7 32  1  0
  8 33  1  0
  9 34  1  0
 12 35  1  0
 12 36  1  0
 13 37  1  0
 13 38  1  0
 14 39  1  0
 15 40  1  0
 15 41  1  0
 16 42  1  0
 16 43  1  0
 19 44  1  0
 20 45  1  0
 22 46  1  0
 23 47  1  0
M  END
>  <Unnamed: 0>  (227) 
1350

>  <ID>  (227) 
TRAIN_1350

>  <Canonical_Smiles>  (227) 
OC1C(Cc2ccccc12)N3CCC(CC3)Oc4ccc(cc4)C#N

>  <Inhibition>  (227) 
0.5

>  <TDC_conf_true_inhibitor>  (227) 
0

>  <TDC_conf_non_inhibitor>  (227) 
1

>  <split>  (227) 
1

$$$$
227
     RDKit          3D

 38 40  0  0  0  0  0  0  0  0999 V2000
   -4.9740   -0.1903    1.3734 O   0  0  0  0  0  0  0  0  0  0  0  0
   -4.1993    1.0132    1.3272 C   0  0  0  0  0  0  0  0  0  0  0  0
   -3.3788    1.0366    0.0340 C   0  0  0  0  0  0  0  0  0  0  0  0
   -4.3167    1.1006   -1.0625 O   0  0  0  0  0  0  0  0  0  0  0  0
   -2.4895   -0.2043   -0.1460 C   0  0  0  0  0  0  0  0  0  0  0  0
   -1.5965   -0.0092   -1.2726 O   0  0  0  0  0  0  0  0  0  0  0  0
   -0.3964   -0.7314   -1.0155 C   0  0  0  0  0  0  0  0  0  0  0  0
    0.7409    0.1169   -0.9584 O   0  0  0  0  0  0  0  0  0  0  0  0
    1.5816   -0.4407    0.0546 C   0  0  0  0  0  0  0  0  0  0  0  0
    2.3088    0.6921    0.7844 C   0  0  0  0  0  0  0  0  0  0  0  0
    3.3093    1.4136   -0.1171 C   0  0  0  0  0  0  0  0  0  0  0  0
    4.2997    0.4406   -0.7499 C   0  0  0  0  0  0  0  0  0  0  0  0
    3.5884   -0.6903   -1.4871 C   0  0  0  0  0  0  0  0  0  0  0  0
    2.5928   -1.4097   -0.5796 C   0  0  0  0  0  0  0  0  0  0  0  0
    0.7781   -1.1736    0.9964 O   0  0  0  0  0  0  0  0  0  0  0  0
   -0.4875   -1.3493    0.3598 C   0  0  0  0  0  0  0  0  0  0  0  0
   -1.5958   -0.5630    1.0388 C   0  0  0  0  0  0  0  0  0  0  0  0
   -1.0879    0.5975    1.7018 O   0  0  0  0  0  0  0  0  0  0  0  0
   -5.5499   -0.1135    2.1558 H   0  0  0  0  0  0  0  0  0  0  0  0
   -3.5726    1.0598    2.2211 H   0  0  0  0  0  0  0  0  0  0  0  0
   -4.9009    1.8540    1.3421 H   0  0  0  0  0  0  0  0  0  0  0  0
   -2.7792    1.9515   -0.0199 H   0  0  0  0  0  0  0  0  0  0  0  0
   -4.9513    0.3759   -0.9079 H   0  0  0  0  0  0  0  0  0  0  0  0
   -3.1046   -1.0723   -0.4185 H   0  0  0  0  0  0  0  0  0  0  0  0
   -0.2463   -1.4779   -1.8025 H   0  0  0  0  0  0  0  0  0  0  0  0
    1.5829    1.4245    1.1572 H   0  0  0  0  0  0  0  0  0  0  0  0
    2.8243    0.2937    1.6677 H   0  0  0  0  0  0  0  0  0  0  0  0
    2.7724    1.9537   -0.9065 H   0  0  0  0  0  0  0  0  0  0  0  0
    3.8537    2.1648    0.4664 H   0  0  0  0  0  0  0  0  0  0  0  0
    4.9541    0.9795   -1.4441 H   0  0  0  0  0  0  0  0  0  0  0  0
    4.9428    0.0172    0.0316 H   0  0  0  0  0  0  0  0  0  0  0  0
    4.3280   -1.4069   -1.8618 H   0  0  0  0  0  0  0  0  0  0  0  0
    3.0659   -0.2860   -2.3626 H   0  0  0  0  0  0  0  0  0  0  0  0
    3.1335   -1.9457    0.2112 H   0  0  0  0  0  0  0  0  0  0  0  0
    2.0720   -2.1781   -1.1637 H   0  0  0  0  0  0  0  0  0  0  0  0
   -0.7462   -2.4122    0.3016 H   0  0  0  0  0  0  0  0  0  0  0  0
   -2.1217   -1.1586    1.7911 H   0  0  0  0  0  0  0  0  0  0  0  0
   -0.2341    0.3270    2.0927 H   0  0  0  0  0  0  0  0  0  0  0  0
  1  2  1  0
  2  3  1  0
  3  4  1  0
  3  5  1  0
  5  6  1  0
  6  7  1  0
  7  8  1  0
  8  9  1  0
  9 10  1  0
 10 11  1  0
 11 12  1  0
 12 13  1  0
 13 14  1  0
  9 15  1  0
 15 16  1  0
 16 17  1  0
 17 18  1  0
 17  5  1  0
 16  7  1  0
 14  9  1  0
  1 19  1  0
  2 20  1  0
  2 21  1  0
  3 22  1  0
  4 23  1  0
  5 24  1  0
  7 25  1  0
 10 26  1  0
 10 27  1  0
 11 28  1  0
 11 29  1  0
 12 30  1  0
 12 31  1  0
 13 32  1  0
 13 33  1  0
 14 34  1  0
 14 35  1  0
 16 36  1  0
 17 37  1  0
 18 38  1  0
M  END
>  <Unnamed: 0>  (228) 
1353

>  <ID>  (228) 
TRAIN_1353

>  <Canonical_Smiles>  (228) 
OCC(O)C1OC2OC3(CCCCC3)OC2C1O

>  <Inhibition>  (228) 
0.66

>  <TDC_conf_true_inhibitor>  (228) 
0

>  <TDC_conf_non_inhibitor>  (228) 
1

>  <split>  (228) 
1

$$$$
228
     RDKit          3D

 31 32  0  0  0  0  0  0  0  0999 V2000
    2.5702   -0.3691    2.3542 C   0  0  0  0  0  0  0  0  0  0  0  0
    2.8904   -0.3610    0.8712 C   0  0  0  0  0  0  0  0  0  0  0  0
    2.1467   -1.4105    0.2452 O   0  0  0  0  0  0  0  0  0  0  0  0
    2.0039   -1.2848   -1.1029 C   0  0  0  0  0  0  0  0  0  0  0  0
    2.5581   -0.4198   -1.7761 O   0  0  0  0  0  0  0  0  0  0  0  0
    1.1147   -2.3803   -1.6852 C   0  0  0  0  0  0  0  0  0  0  0  0
    0.4153   -3.2835   -0.6726 C   0  0  0  0  0  0  0  0  0  0  0  0
   -0.1020   -1.6779   -2.8645 S   0  0  0  0  0  0  0  0  0  0  0  0
   -0.8559   -0.4042   -1.9255 C   0  0  0  0  0  0  0  0  0  0  0  0
   -0.6424   -0.2647   -0.6397 N   0  0  0  0  0  0  0  0  0  0  0  0
   -1.3471    0.8187   -0.1709 C   0  0  0  0  0  0  0  0  0  0  0  0
   -1.2730    1.1960    1.1308 N   0  0  0  0  0  0  0  0  0  0  0  0
   -2.0436    2.2471    1.4522 C   0  0  0  0  0  0  0  0  0  0  0  0
   -1.9766    2.5935    2.7664 O   0  0  0  0  0  0  0  0  0  0  0  0
   -2.8556    2.9704    0.6093 C   0  0  0  0  0  0  0  0  0  0  0  0
   -2.9078    2.5786   -0.7174 C   0  0  0  0  0  0  0  0  0  0  0  0
   -3.7151    3.2807   -1.5798 O   0  0  0  0  0  0  0  0  0  0  0  0
   -2.1348    1.4826   -1.1144 C   0  0  0  0  0  0  0  0  0  0  0  0
   -1.9365    0.7204   -2.6396 S   0  0  0  0  0  0  0  0  0  0  0  0
    3.1861    0.3609    2.8875 H   0  0  0  0  0  0  0  0  0  0  0  0
    1.5145   -0.1143    2.5132 H   0  0  0  0  0  0  0  0  0  0  0  0
    2.7259   -1.3627    2.7923 H   0  0  0  0  0  0  0  0  0  0  0  0
    2.6178    0.6129    0.4532 H   0  0  0  0  0  0  0  0  0  0  0  0
    3.9569   -0.5391    0.7082 H   0  0  0  0  0  0  0  0  0  0  0  0
    1.7843   -3.0199   -2.2740 H   0  0  0  0  0  0  0  0  0  0  0  0
   -0.1616   -4.0662   -1.1779 H   0  0  0  0  0  0  0  0  0  0  0  0
    1.1510   -3.7849   -0.0331 H   0  0  0  0  0  0  0  0  0  0  0  0
   -0.2612   -2.7333   -0.0111 H   0  0  0  0  0  0  0  0  0  0  0  0
   -1.3543    1.9203    3.0966 H   0  0  0  0  0  0  0  0  0  0  0  0
   -3.4446    3.8064    0.9718 H   0  0  0  0  0  0  0  0  0  0  0  0
   -3.6238    2.8877   -2.4672 H   0  0  0  0  0  0  0  0  0  0  0  0
  1  2  1  0
  2  3  1  0
  3  4  1  0
  4  5  2  0
  4  6  1  0
  6  7  1  0
  6  8  1  0
  8  9  1  0
  9 10  2  0
 10 11  1  0
 11 12  2  0
 12 13  1  0
 13 14  1  0
 13 15  2  0
 15 16  1  0
 16 17  1  0
 16 18  2  0
 18 19  1  0
 19  9  1  0
 18 11  1  0
  1 20  1  0
  1 21  1  0
  1 22  1  0
  2 23  1  0
  2 24  1  0
  6 25  1  0
  7 26  1  0
  7 27  1  0
  7 28  1  0
 14 29  1  0
 15 30  1  0
 17 31  1  0
M  END
>  <Unnamed: 0>  (229) 
1354

>  <ID>  (229) 
TRAIN_1354

>  <Canonical_Smiles>  (229) 
CCOC(=O)C(C)Sc1nc2nc(O)cc(O)c2s1

>  <Inhibition>  (229) 
42.1

>  <TDC_conf_true_inhibitor>  (229) 
0

>  <TDC_conf_non_inhibitor>  (229) 
1

>  <split>  (229) 
1

$$$$
229
     RDKit          3D

 40 42  0  0  0  0  0  0  0  0999 V2000
    6.3277   -0.0216    0.0956 C   0  0  0  0  0  0  0  0  0  0  0  0
    4.8419    0.1478    0.2078 C   0  0  0  0  0  0  0  0  0  0  0  0
    4.1114   -0.6083    1.1312 C   0  0  0  0  0  0  0  0  0  0  0  0
    2.7319   -0.4304    1.2610 C   0  0  0  0  0  0  0  0  0  0  0  0
    2.0607    0.5150    0.4763 C   0  0  0  0  0  0  0  0  0  0  0  0
    0.5649    0.6998    0.5991 C   0  0  0  0  0  0  0  0  0  0  0  0
   -0.2168    0.0061   -0.5337 C   0  0  0  0  0  0  0  0  0  0  0  0
   -0.1493   -1.5235   -0.4793 C   0  0  0  0  0  0  0  0  0  0  0  0
   -1.3887   -1.9963   -1.2288 C   0  0  0  0  0  0  0  0  0  0  0  0
   -2.1492   -0.7257   -1.5803 C   0  0  0  0  0  0  0  0  0  0  0  0
   -1.6680    0.3037   -0.6473 N   0  0  0  0  0  0  0  0  0  0  0  0
   -2.3845    0.2990    0.6417 C   0  0  0  0  0  0  0  0  0  0  0  0
   -3.8044    0.7806    0.5345 C   0  0  0  0  0  0  0  0  0  0  0  0
   -4.2279    2.0307    0.5489 N   0  0  0  0  0  0  0  0  0  0  0  0
   -5.5926    1.9670    0.4524 C   0  0  0  0  0  0  0  0  0  0  0  0
   -6.0156    0.6617    0.4020 C   0  0  0  0  0  0  0  0  0  0  0  0
   -4.8718   -0.0831    0.4633 N   0  0  0  0  0  0  0  0  0  0  0  0
    2.7954    1.2817   -0.4368 C   0  0  0  0  0  0  0  0  0  0  0  0
    4.1746    1.1033   -0.5658 C   0  0  0  0  0  0  0  0  0  0  0  0
    6.6120   -1.0677    0.2516 H   0  0  0  0  0  0  0  0  0  0  0  0
    6.6821    0.2661   -0.9000 H   0  0  0  0  0  0  0  0  0  0  0  0
    6.8326    0.5993    0.8423 H   0  0  0  0  0  0  0  0  0  0  0  0
    4.6135   -1.3430    1.7565 H   0  0  0  0  0  0  0  0  0  0  0  0
    2.1872   -1.0345    1.9822 H   0  0  0  0  0  0  0  0  0  0  0  0
    0.2401    0.3323    1.5807 H   0  0  0  0  0  0  0  0  0  0  0  0
    0.3514    1.7770    0.5917 H   0  0  0  0  0  0  0  0  0  0  0  0
    0.2301    0.3267   -1.4866 H   0  0  0  0  0  0  0  0  0  0  0  0
   -0.1796   -1.8945    0.5521 H   0  0  0  0  0  0  0  0  0  0  0  0
    0.7646   -1.9048   -0.9469 H   0  0  0  0  0  0  0  0  0  0  0  0
   -1.1247   -2.5632   -2.1275 H   0  0  0  0  0  0  0  0  0  0  0  0
   -1.9891   -2.6474   -0.5832 H   0  0  0  0  0  0  0  0  0  0  0  0
   -1.8865   -0.4167   -2.6003 H   0  0  0  0  0  0  0  0  0  0  0  0
   -3.2319   -0.8780   -1.5814 H   0  0  0  0  0  0  0  0  0  0  0  0
   -1.9002    0.9957    1.3359 H   0  0  0  0  0  0  0  0  0  0  0  0
   -2.3593   -0.6889    1.1187 H   0  0  0  0  0  0  0  0  0  0  0  0
   -6.1961    2.8652    0.4281 H   0  0  0  0  0  0  0  0  0  0  0  0
   -6.9964    0.2148    0.3281 H   0  0  0  0  0  0  0  0  0  0  0  0
   -4.8106   -1.0913    0.4441 H   0  0  0  0  0  0  0  0  0  0  0  0
    2.2967    2.0284   -1.0517 H   0  0  0  0  0  0  0  0  0  0  0  0
    4.7240    1.7170   -1.2761 H   0  0  0  0  0  0  0  0  0  0  0  0
  1  2  1  0
  2  3  2  0
  3  4  1  0
  4  5  2  0
  5  6  1  0
  6  7  1  0
  7  8  1  0
  8  9  1  0
  9 10  1  0
 10 11  1  0
 11 12  1  0
 12 13  1  0
 13 14  2  0
 14 15  1  0
 15 16  2  0
 16 17  1  0
  5 18  1  0
 18 19  2  0
 19  2  1  0
 11  7  1  0
 17 13  1  0
  1 20  1  0
  1 21  1  0
  1 22  1  0
  3 23  1  0
  4 24  1  0
  6 25  1  0
  6 26  1  0
  7 27  1  0
  8 28  1  0
  8 29  1  0
  9 30  1  0
  9 31  1  0
 10 32  1  0
 10 33  1  0
 12 34  1  0
 12 35  1  0
 15 36  1  0
 16 37  1  0
 17 38  1  0
 18 39  1  0
 19 40  1  0
M  END
>  <Unnamed: 0>  (230) 
1355

>  <ID>  (230) 
TRAIN_1355

>  <Canonical_Smiles>  (230) 
Cc1ccc(CC2CCCN2Cc3ncc[nH]3)cc1

>  <Inhibition>  (230) 
38.0

>  <TDC_conf_true_inhibitor>  (230) 
0

>  <TDC_conf_non_inhibitor>  (230) 
1

>  <split>  (230) 
1

$$$$
230
     RDKit          3D

 47 48  0  0  0  0  0  0  0  0999 V2000
    5.3736   -0.4453   -2.4081 C   0  0  0  0  0  0  0  0  0  0  0  0
    4.6690    0.1278   -1.1738 C   0  0  0  0  0  0  0  0  0  0  0  0
    5.6521    0.1923   -0.0038 C   0  0  0  0  0  0  0  0  0  0  0  0
    3.4204   -0.7187   -0.8509 C   0  0  0  0  0  0  0  0  0  0  0  0
    2.6030   -0.2903    0.3715 C   0  0  0  0  0  0  0  0  0  0  0  0
    1.9102    1.3903    0.2009 S   0  0  0  0  0  0  0  0  0  0  0  0
    1.1996    1.5682    1.8730 C   0  0  0  0  0  0  0  0  0  0  0  0
    0.0576    0.5928    2.0986 C   0  0  0  0  0  0  0  0  0  0  0  0
    0.0409   -0.1874    3.0464 O   0  0  0  0  0  0  0  0  0  0  0  0
   -0.9581    0.6902    1.1736 N   0  0  0  0  0  0  0  0  0  0  0  0
   -2.0943   -0.2382    1.1553 C   0  0  0  0  0  0  0  0  0  0  0  0
   -1.6633   -1.5596    0.4977 C   0  0  0  0  0  0  0  0  0  0  0  0
   -2.8174   -2.5521    0.4003 C   0  0  0  0  0  0  0  0  0  0  0  0
   -4.0178   -1.9523   -0.3233 C   0  0  0  0  0  0  0  0  0  0  0  0
   -4.4663   -0.6492    0.3324 C   0  0  0  0  0  0  0  0  0  0  0  0
   -3.3284    0.3784    0.4320 C   0  0  0  0  0  0  0  0  0  0  0  0
   -3.8128    1.5204    1.1653 O   0  0  0  0  0  0  0  0  0  0  0  0
   -4.1570    2.4735    0.1632 C   0  0  0  0  0  0  0  0  0  0  0  0
   -3.1486    2.2121   -0.9209 C   0  0  0  0  0  0  0  0  0  0  0  0
   -2.9698    0.7947   -0.9048 O   0  0  0  0  0  0  0  0  0  0  0  0
    6.2355    0.1710   -2.6853 H   0  0  0  0  0  0  0  0  0  0  0  0
    5.7313   -1.4644   -2.2243 H   0  0  0  0  0  0  0  0  0  0  0  0
    4.6945   -0.4721   -3.2669 H   0  0  0  0  0  0  0  0  0  0  0  0
    4.3623    1.1506   -1.4212 H   0  0  0  0  0  0  0  0  0  0  0  0
    5.9418   -0.8110    0.3274 H   0  0  0  0  0  0  0  0  0  0  0  0
    6.5631    0.7289   -0.2905 H   0  0  0  0  0  0  0  0  0  0  0  0
    5.2207    0.7236    0.8502 H   0  0  0  0  0  0  0  0  0  0  0  0
    3.7334   -1.7597   -0.6903 H   0  0  0  0  0  0  0  0  0  0  0  0
    2.7625   -0.7363   -1.7305 H   0  0  0  0  0  0  0  0  0  0  0  0
    3.2155   -0.3399    1.2772 H   0  0  0  0  0  0  0  0  0  0  0  0
    1.7727   -0.9937    0.4952 H   0  0  0  0  0  0  0  0  0  0  0  0
    1.9798    1.4037    2.6225 H   0  0  0  0  0  0  0  0  0  0  0  0
    0.8189    2.5866    1.9963 H   0  0  0  0  0  0  0  0  0  0  0  0
   -0.7306    1.1439    0.2950 H   0  0  0  0  0  0  0  0  0  0  0  0
   -2.3639   -0.4324    2.2021 H   0  0  0  0  0  0  0  0  0  0  0  0
   -1.2626   -1.3657   -0.5062 H   0  0  0  0  0  0  0  0  0  0  0  0
   -0.8457   -2.0165    1.0690 H   0  0  0  0  0  0  0  0  0  0  0  0
   -3.1159   -2.8634    1.4091 H   0  0  0  0  0  0  0  0  0  0  0  0
   -2.4839   -3.4541   -0.1258 H   0  0  0  0  0  0  0  0  0  0  0  0
   -4.8461   -2.6698   -0.3175 H   0  0  0  0  0  0  0  0  0  0  0  0
   -3.7620   -1.7710   -1.3744 H   0  0  0  0  0  0  0  0  0  0  0  0
   -4.8619   -0.8569    1.3357 H   0  0  0  0  0  0  0  0  0  0  0  0
   -5.3022   -0.2326   -0.2446 H   0  0  0  0  0  0  0  0  0  0  0  0
   -5.1788    2.2685   -0.1749 H   0  0  0  0  0  0  0  0  0  0  0  0
   -4.1092    3.4896    0.5625 H   0  0  0  0  0  0  0  0  0  0  0  0
   -3.4760    2.5474   -1.9079 H   0  0  0  0  0  0  0  0  0  0  0  0
   -2.1856    2.6781   -0.6893 H   0  0  0  0  0  0  0  0  0  0  0  0
  1  2  1  0
  2  3  1  0
  2  4  1  0
  4  5  1  0
  5  6  1  0
  6  7  1  0
  7  8  1  0
  8  9  2  0
  8 10  1  0
 10 11  1  0
 11 12  1  0
 12 13  1  0
 13 14  1  0
 14 15  1  0
 15 16  1  0
 16 17  1  0
 17 18  1  0
 18 19  1  0
 19 20  1  0
 16 11  1  0
 20 16  1  0
  1 21  1  0
  1 22  1  0
  1 23  1  0
  2 24  1  0
  3 25  1  0
  3 26  1  0
  3 27  1  0
  4 28  1  0
  4 29  1  0
  5 30  1  0
  5 31  1  0
  7 32  1  0
  7 33  1  0
 10 34  1  0
 11 35  1  0
 12 36  1  0
 12 37  1  0
 13 38  1  0
 13 39  1  0
 14 40  1  0
 14 41  1  0
 15 42  1  0
 15 43  1  0
 18 44  1  0
 18 45  1  0
 19 46  1  0
 19 47  1  0
M  END
>  <Unnamed: 0>  (231) 
1359

>  <ID>  (231) 
TRAIN_1359

>  <Canonical_Smiles>  (231) 
CC(C)CCSCC(=O)NC1CCCCC12OCCO2

>  <Inhibition>  (231) 
25.6

>  <TDC_conf_true_inhibitor>  (231) 
1

>  <TDC_conf_non_inhibitor>  (231) 
0

>  <split>  (231) 
1

$$$$
231
     RDKit          3D

 29 30  0  0  0  0  0  0  0  0999 V2000
    4.9741   -1.8963   -0.7329 C   0  0  0  0  0  0  0  0  0  0  0  0
    5.1829   -0.1100   -0.5974 S   0  0  0  0  0  0  0  0  0  0  0  0
    3.6448    0.3336    0.0706 C   0  0  0  0  0  0  0  0  0  0  0  0
    2.6530   -0.4880    0.2361 N   0  0  0  0  0  0  0  0  0  0  0  0
    1.6193    0.2107    0.7972 N   0  0  0  0  0  0  0  0  0  0  0  0
    1.7662    1.5576    0.9985 C   0  0  0  0  0  0  0  0  0  0  0  0
    0.9693    2.4774    1.4109 N   0  0  0  0  0  0  0  0  0  0  0  0
   -0.2742    2.0353    1.7906 C   0  0  0  0  0  0  0  0  0  0  0  0
   -0.4442    1.2370    2.7079 O   0  0  0  0  0  0  0  0  0  0  0  0
   -1.4087    2.6796    1.0098 C   0  0  0  0  0  0  0  0  0  0  0  0
   -2.8953    1.6388    0.9505 S   0  0  0  0  0  0  0  0  0  0  0  0
   -2.3072    0.2635    0.0774 C   0  0  0  0  0  0  0  0  0  0  0  0
   -1.0646    0.0749   -0.3108 N   0  0  0  0  0  0  0  0  0  0  0  0
   -1.0794   -1.1169   -0.9940 C   0  0  0  0  0  0  0  0  0  0  0  0
   -2.3392   -1.6667   -0.9910 C   0  0  0  0  0  0  0  0  0  0  0  0
   -3.1159   -0.7774   -0.2958 N   0  0  0  0  0  0  0  0  0  0  0  0
   -4.5245   -0.9354   -0.0268 C   0  0  0  0  0  0  0  0  0  0  0  0
    3.4034    2.0055    0.5344 S   0  0  0  0  0  0  0  0  0  0  0  0
    4.1553   -2.1402   -1.4154 H   0  0  0  0  0  0  0  0  0  0  0  0
    4.7779   -2.3387    0.2477 H   0  0  0  0  0  0  0  0  0  0  0  0
    5.8934   -2.3355   -1.1299 H   0  0  0  0  0  0  0  0  0  0  0  0
    0.6805   -0.1949    0.8339 H   0  0  0  0  0  0  0  0  0  0  0  0
   -1.0824    2.8963   -0.0127 H   0  0  0  0  0  0  0  0  0  0  0  0
   -1.6589    3.6266    1.4976 H   0  0  0  0  0  0  0  0  0  0  0  0
   -0.1810   -1.5200   -1.4457 H   0  0  0  0  0  0  0  0  0  0  0  0
   -2.7306   -2.5829   -1.4112 H   0  0  0  0  0  0  0  0  0  0  0  0
   -5.0661   -0.1102   -0.4959 H   0  0  0  0  0  0  0  0  0  0  0  0
   -4.8709   -1.8837   -0.4466 H   0  0  0  0  0  0  0  0  0  0  0  0
   -4.6772   -0.9399    1.0554 H   0  0  0  0  0  0  0  0  0  0  0  0
  1  2  1  0
  2  3  1  0
  3  4  2  0
  4  5  1  0
  5  6  1  0
  6  7  2  0
  7  8  1  0
  8  9  2  0
  8 10  1  0
 10 11  1  0
 11 12  1  0
 12 13  2  0
 13 14  1  0
 14 15  2  0
 15 16  1  0
 16 17  1  0
  6 18  1  0
 18  3  1  0
 16 12  1  0
  1 19  1  0
  1 20  1  0
  1 21  1  0
  5 22  1  0
 10 23  1  0
 10 24  1  0
 14 25  1  0
 15 26  1  0
 17 27  1  0
 17 28  1  0
 17 29  1  0
M  END
>  <Unnamed: 0>  (232) 
1365

>  <ID>  (232) 
TRAIN_1365

>  <Canonical_Smiles>  (232) 
CSC1=NN\C(=N/C(=O)CSc2nccn2C)\S1

>  <Inhibition>  (232) 
0.5

>  <TDC_conf_true_inhibitor>  (232) 
0

>  <TDC_conf_non_inhibitor>  (232) 
1

>  <split>  (232) 
1

$$$$
232
     RDKit          3D

 74 78  0  0  0  0  0  0  0  0999 V2000
    4.8795   -2.9333    0.7606 C   0  0  0  0  0  0  0  0  0  0  0  0
    5.6596   -1.8781   -0.0258 C   0  0  0  0  0  0  0  0  0  0  0  0
    7.0328   -2.4290   -0.4142 C   0  0  0  0  0  0  0  0  0  0  0  0
    4.9037   -1.4223   -1.2870 C   0  0  0  0  0  0  0  0  0  0  0  0
    3.6680   -0.7287   -0.9830 N   0  0  0  0  0  0  0  0  0  0  0  0
    3.6122    0.5826   -0.5140 C   0  0  0  0  0  0  0  0  0  0  0  0
    4.5018    1.4082   -0.4454 O   0  0  0  0  0  0  0  0  0  0  0  0
    2.2250    0.6915    0.0339 C   0  0  0  0  0  0  0  0  0  0  0  0
    1.3904    1.9111    0.4105 C   0  0  0  0  0  0  0  0  0  0  0  0
    0.3289    1.3388    1.4127 C   0  0  0  0  0  0  0  0  0  0  0  0
   -0.3095    0.0056    0.8175 C   0  0  0  0  0  0  0  0  0  0  0  0
   -1.8041   -0.3458    1.2573 C   0  0  0  0  0  0  0  0  0  0  0  0
   -2.1624    0.5064    2.5008 C   0  0  0  0  0  0  0  0  0  0  0  0
   -1.8705   -1.8428    1.6928 C   0  0  0  0  0  0  0  0  0  0  0  0
   -3.2807   -2.3428    2.0206 C   0  0  0  0  0  0  0  0  0  0  0  0
   -4.2982   -2.0749    0.9125 C   0  0  0  0  0  0  0  0  0  0  0  0
   -4.3063   -0.6166    0.3867 C   0  0  0  0  0  0  0  0  0  0  0  0
   -5.0559    0.2948    1.3829 C   0  0  0  0  0  0  0  0  0  0  0  0
   -2.8241   -0.1547    0.0746 C   0  0  0  0  0  0  0  0  0  0  0  0
   -2.3497   -0.8559   -1.2462 C   0  0  0  0  0  0  0  0  0  0  0  0
   -0.8520   -1.0527   -1.4422 C   0  0  0  0  0  0  0  0  0  0  0  0
   -0.0315   -0.0062   -0.7275 C   0  0  0  0  0  0  0  0  0  0  0  0
   -0.2881    1.4244   -1.2599 C   0  0  0  0  0  0  0  0  0  0  0  0
    0.5057    2.3923   -0.7446 C   0  0  0  0  0  0  0  0  0  0  0  0
    0.5617    3.8500   -1.1459 C   0  0  0  0  0  0  0  0  0  0  0  0
   -0.0855    4.7338   -0.0762 C   0  0  0  0  0  0  0  0  0  0  0  0
   -0.0706    4.1494   -2.5095 C   0  0  0  0  0  0  0  0  0  0  0  0
    1.4771   -0.1254   -1.0181 C   0  0  0  0  0  0  0  0  0  0  0  0
    2.4022   -1.3045   -1.0753 C   0  0  0  0  0  0  0  0  0  0  0  0
    2.1066   -2.4707   -1.2493 O   0  0  0  0  0  0  0  0  0  0  0  0
   -5.1466   -0.4764   -0.8925 C   0  0  0  0  0  0  0  0  0  0  0  0
   -5.2102    0.5196   -1.5981 O   0  0  0  0  0  0  0  0  0  0  0  0
   -5.8932   -1.5522   -1.1989 O   0  0  0  0  0  0  0  0  0  0  0  0
    5.4560   -3.2761    1.6266 H   0  0  0  0  0  0  0  0  0  0  0  0
    3.9352   -2.5286    1.1379 H   0  0  0  0  0  0  0  0  0  0  0  0
    4.6533   -3.8061    0.1388 H   0  0  0  0  0  0  0  0  0  0  0  0
    5.8161   -1.0138    0.6321 H   0  0  0  0  0  0  0  0  0  0  0  0
    7.6217   -1.6702   -0.9404 H   0  0  0  0  0  0  0  0  0  0  0  0
    6.9403   -3.3018   -1.0696 H   0  0  0  0  0  0  0  0  0  0  0  0
    7.5970   -2.7306    0.4747 H   0  0  0  0  0  0  0  0  0  0  0  0
    5.5327   -0.7274   -1.8562 H   0  0  0  0  0  0  0  0  0  0  0  0
    4.6802   -2.2808   -1.9311 H   0  0  0  0  0  0  0  0  0  0  0  0
    2.3426    0.1155    0.9715 H   0  0  0  0  0  0  0  0  0  0  0  0
    1.9810    2.7122    0.8623 H   0  0  0  0  0  0  0  0  0  0  0  0
    0.8030    1.1138    2.3765 H   0  0  0  0  0  0  0  0  0  0  0  0
   -0.4266    2.1095    1.5997 H   0  0  0  0  0  0  0  0  0  0  0  0
    0.3039   -0.8056    1.2402 H   0  0  0  0  0  0  0  0  0  0  0  0
   -1.3368    0.5197    3.2217 H   0  0  0  0  0  0  0  0  0  0  0  0
   -2.4020    1.5383    2.2248 H   0  0  0  0  0  0  0  0  0  0  0  0
   -3.0044    0.1227    3.0727 H   0  0  0  0  0  0  0  0  0  0  0  0
   -1.2333   -2.0012    2.5729 H   0  0  0  0  0  0  0  0  0  0  0  0
   -1.4582   -2.4871    0.9088 H   0  0  0  0  0  0  0  0  0  0  0  0
   -3.6325   -1.9051    2.9603 H   0  0  0  0  0  0  0  0  0  0  0  0
   -3.2365   -3.4237    2.2046 H   0  0  0  0  0  0  0  0  0  0  0  0
   -4.0905   -2.7752    0.0939 H   0  0  0  0  0  0  0  0  0  0  0  0
   -5.2968   -2.3491    1.2782 H   0  0  0  0  0  0  0  0  0  0  0  0
   -4.8935    0.0213    2.4261 H   0  0  0  0  0  0  0  0  0  0  0  0
   -6.1424    0.2341    1.2363 H   0  0  0  0  0  0  0  0  0  0  0  0
   -4.7788    1.3460    1.2472 H   0  0  0  0  0  0  0  0  0  0  0  0
   -2.8581    0.9226   -0.1443 H   0  0  0  0  0  0  0  0  0  0  0  0
   -2.7189   -0.2585   -2.0909 H   0  0  0  0  0  0  0  0  0  0  0  0
   -2.8154   -1.8393   -1.3708 H   0  0  0  0  0  0  0  0  0  0  0  0
   -0.6313   -1.0610   -2.5178 H   0  0  0  0  0  0  0  0  0  0  0  0
   -0.5723   -2.0487   -1.0794 H   0  0  0  0  0  0  0  0  0  0  0  0
   -0.9967    1.5998   -2.0624 H   0  0  0  0  0  0  0  0  0  0  0  0
    1.6216    4.1262   -1.2240 H   0  0  0  0  0  0  0  0  0  0  0  0
   -0.0164    5.7915   -0.3530 H   0  0  0  0  0  0  0  0  0  0  0  0
   -1.1455    4.4886    0.0555 H   0  0  0  0  0  0  0  0  0  0  0  0
    0.4092    4.6172    0.8939 H   0  0  0  0  0  0  0  0  0  0  0  0
   -1.1521    3.9741   -2.5036 H   0  0  0  0  0  0  0  0  0  0  0  0
    0.0923    5.1972   -2.7856 H   0  0  0  0  0  0  0  0  0  0  0  0
    0.3746    3.5294   -3.2955 H   0  0  0  0  0  0  0  0  0  0  0  0
    1.6337    0.2983   -2.0312 H   0  0  0  0  0  0  0  0  0  0  0  0
   -6.3712   -1.2837   -2.0114 H   0  0  0  0  0  0  0  0  0  0  0  0
  1  2  1  0
  2  3  1  0
  2  4  1  0
  4  5  1  0
  5  6  1  0
  6  7  2  0
  6  8  1  0
  8  9  1  0
  9 10  1  0
 10 11  1  0
 11 12  1  0
 12 13  1  0
 12 14  1  0
 14 15  1  0
 15 16  1  0
 16 17  1  0
 17 18  1  0
 17 19  1  0
 19 20  1  0
 20 21  1  0
 21 22  1  0
 22 23  1  0
 23 24  2  0
 24 25  1  0
 25 26  1  0
 25 27  1  0
 22 28  1  0
 28 29  1  0
 29 30  2  0
 17 31  1  0
 31 32  2  0
 31 33  1  0
 29  5  1  0
 28  8  1  0
 24  9  1  0
 22 11  1  0
 19 12  1  0
  1 34  1  0
  1 35  1  0
  1 36  1  0
  2 37  1  0
  3 38  1  0
  3 39  1  0
  3 40  1  0
  4 41  1  0
  4 42  1  0
  8 43  1  0
  9 44  1  0
 10 45  1  0
 10 46  1  0
 11 47  1  0
 13 48  1  0
 13 49  1  0
 13 50  1  0
 14 51  1  0
 14 52  1  0
 15 53  1  0
 15 54  1  0
 16 55  1  0
 16 56  1  0
 18 57  1  0
 18 58  1  0
 18 59  1  0
 19 60  1  0
 20 61  1  0
 20 62  1  0
 21 63  1  0
 21 64  1  0
 23 65  1  0
 25 66  1  0
 26 67  1  0
 26 68  1  0
 26 69  1  0
 27 70  1  0
 27 71  1  0
 27 72  1  0
 28 73  1  0
 33 74  1  0
M  END
>  <Unnamed: 0>  (233) 
1367

>  <ID>  (233) 
TRAIN_1367

>  <Canonical_Smiles>  (233) 
CC(C)CN1C(=O)C2C3CC4C5(C)CCCC(C)(C5CCC4(C=C3C(C)C)C2C1=O)C(=O)O

>  <Inhibition>  (233) 
1.81

>  <TDC_conf_true_inhibitor>  (233) 
0

>  <TDC_conf_non_inhibitor>  (233) 
1

>  <split>  (233) 
1

$$$$
233
     RDKit          3D

 26 27  0  0  0  0  0  0  0  0999 V2000
   -3.5186   -1.9400    1.7320 C   0  0  0  0  0  0  0  0  0  0  0  0
   -2.7664   -0.9164    0.9649 C   0  0  0  0  0  0  0  0  0  0  0  0
   -1.4316   -0.9206    0.9782 N   0  0  0  0  0  0  0  0  0  0  0  0
   -1.0483    0.1302    0.1846 N   0  0  0  0  0  0  0  0  0  0  0  0
   -2.1654    0.7971   -0.3258 C   0  0  0  0  0  0  0  0  0  0  0  0
   -2.0822    1.9794   -1.2224 C   0  0  0  0  0  0  0  0  0  0  0  0
   -3.2593    0.1294    0.1722 C   0  0  0  0  0  0  0  0  0  0  0  0
   -5.0733    0.4991   -0.1189 Br  0  0  0  0  0  0  0  0  0  0  0  0
    0.3311    0.4485   -0.0445 C   0  0  0  0  0  0  0  0  0  0  0  0
    0.7325    1.5060   -0.8093 N   0  0  0  0  0  0  0  0  0  0  0  0
    2.0596    1.4944   -0.7848 N   0  0  0  0  0  0  0  0  0  0  0  0
    2.3840    0.4107   -0.0489 N   0  0  0  0  0  0  0  0  0  0  0  0
    3.7493    0.1154    0.3066 C   0  0  0  0  0  0  0  0  0  0  0  0
    4.4108   -0.7123   -0.7484 C   0  0  0  0  0  0  0  0  0  0  0  0
    3.9420   -1.1341   -1.7912 O   0  0  0  0  0  0  0  0  0  0  0  0
    5.6986   -0.9884   -0.4362 O   0  0  0  0  0  0  0  0  0  0  0  0
    1.3424   -0.2552    0.4909 N   0  0  0  0  0  0  0  0  0  0  0  0
   -2.8447   -2.6271    2.2546 H   0  0  0  0  0  0  0  0  0  0  0  0
   -4.1491   -2.5339    1.0626 H   0  0  0  0  0  0  0  0  0  0  0  0
   -4.1585   -1.4637    2.4816 H   0  0  0  0  0  0  0  0  0  0  0  0
   -1.5745    2.8111   -0.7238 H   0  0  0  0  0  0  0  0  0  0  0  0
   -3.0753    2.3359   -1.5120 H   0  0  0  0  0  0  0  0  0  0  0  0
   -1.5480    1.7319   -2.1452 H   0  0  0  0  0  0  0  0  0  0  0  0
    3.7455   -0.4296    1.2554 H   0  0  0  0  0  0  0  0  0  0  0  0
    4.2802    1.0650    0.4228 H   0  0  0  0  0  0  0  0  0  0  0  0
    6.0191   -1.5328   -1.1885 H   0  0  0  0  0  0  0  0  0  0  0  0
  1  2  1  0
  2  3  2  0
  3  4  1  0
  4  5  1  0
  5  6  1  0
  5  7  2  0
  7  8  1  0
  4  9  1  0
  9 10  1  0
 10 11  2  0
 11 12  1  0
 12 13  1  0
 13 14  1  0
 14 15  2  0
 14 16  1  0
 12 17  1  0
  7  2  1  0
 17  9  2  0
  1 18  1  0
  1 19  1  0
  1 20  1  0
  6 21  1  0
  6 22  1  0
  6 23  1  0
 13 24  1  0
 13 25  1  0
 16 26  1  0
M  END
>  <Unnamed: 0>  (234) 
1380

>  <ID>  (234) 
TRAIN_1380

>  <Canonical_Smiles>  (234) 
Cc1nn(c(C)c1Br)c2nnn(CC(=O)O)n2

>  <Inhibition>  (234) 
0.5

>  <TDC_conf_true_inhibitor>  (234) 
0

>  <TDC_conf_non_inhibitor>  (234) 
1

>  <split>  (234) 
1

$$$$
234
     RDKit          3D

 35 37  0  0  0  0  0  0  0  0999 V2000
   -0.4333   -1.7675    1.9044 O   0  0  0  0  0  0  0  0  0  0  0  0
   -0.7090   -0.7012    1.3548 C   0  0  0  0  0  0  0  0  0  0  0  0
    0.1475    0.3854    1.3505 N   0  0  0  0  0  0  0  0  0  0  0  0
    1.4724    0.1375    1.7685 N   0  0  0  0  0  0  0  0  0  0  0  0
    2.3903    0.2404    0.7010 C   0  0  0  0  0  0  0  0  0  0  0  0
    2.1186    1.0539   -0.3663 N   0  0  0  0  0  0  0  0  0  0  0  0
    3.0263    1.1316   -1.3647 C   0  0  0  0  0  0  0  0  0  0  0  0
    4.2067    0.4909   -1.4745 N   0  0  0  0  0  0  0  0  0  0  0  0
    4.4195   -0.2945   -0.4101 C   0  0  0  0  0  0  0  0  0  0  0  0
    5.5038   -1.0909   -0.1815 N   0  0  0  0  0  0  0  0  0  0  0  0
    5.3082   -1.7194    1.0183 C   0  0  0  0  0  0  0  0  0  0  0  0
    4.1655   -1.3734    1.5732 N   0  0  0  0  0  0  0  0  0  0  0  0
    3.5985   -0.4776    0.6885 C   0  0  0  0  0  0  0  0  0  0  0  0
   -2.0181   -0.4934    0.6038 C   0  0  0  0  0  0  0  0  0  0  0  0
   -1.7846   -0.4245   -0.9153 C   0  0  0  0  0  0  0  0  0  0  0  0
   -2.7604    0.5055   -1.6390 C   0  0  0  0  0  0  0  0  0  0  0  0
   -4.1502    0.4473   -1.0188 C   0  0  0  0  0  0  0  0  0  0  0  0
   -4.1463    0.8728    0.4508 C   0  0  0  0  0  0  0  0  0  0  0  0
   -2.7813    0.7278    1.1254 C   0  0  0  0  0  0  0  0  0  0  0  0
    0.0803    1.0900    0.6172 H   0  0  0  0  0  0  0  0  0  0  0  0
    1.5869   -0.7670    2.2442 H   0  0  0  0  0  0  0  0  0  0  0  0
    2.7700    1.7959   -2.1855 H   0  0  0  0  0  0  0  0  0  0  0  0
    6.2968   -1.1886   -0.7974 H   0  0  0  0  0  0  0  0  0  0  0  0
    6.0283   -2.4135    1.4324 H   0  0  0  0  0  0  0  0  0  0  0  0
   -2.6350   -1.3789    0.8136 H   0  0  0  0  0  0  0  0  0  0  0  0
   -1.8935   -1.4391   -1.3210 H   0  0  0  0  0  0  0  0  0  0  0  0
   -0.7603   -0.1233   -1.1639 H   0  0  0  0  0  0  0  0  0  0  0  0
   -2.3852    1.5357   -1.5971 H   0  0  0  0  0  0  0  0  0  0  0  0
   -2.8084    0.2322   -2.6992 H   0  0  0  0  0  0  0  0  0  0  0  0
   -4.5330   -0.5783   -1.0960 H   0  0  0  0  0  0  0  0  0  0  0  0
   -4.8444    1.0801   -1.5832 H   0  0  0  0  0  0  0  0  0  0  0  0
   -4.4698    1.9175    0.5346 H   0  0  0  0  0  0  0  0  0  0  0  0
   -4.8930    0.2789    0.9918 H   0  0  0  0  0  0  0  0  0  0  0  0
   -2.2007    1.6417    0.9442 H   0  0  0  0  0  0  0  0  0  0  0  0
   -2.9129    0.6662    2.2126 H   0  0  0  0  0  0  0  0  0  0  0  0
  1  2  2  0
  2  3  1  0
  3  4  1  0
  4  5  1  0
  5  6  2  0
  6  7  1  0
  7  8  2  0
  8  9  1  0
  9 10  1  0
 10 11  1  0
 11 12  2  0
 12 13  1  0
  2 14  1  0
 14 15  1  0
 15 16  1  0
 16 17  1  0
 17 18  1  0
 18 19  1  0
 13  5  1  0
 13  9  2  0
 19 14  1  0
  3 20  1  0
  4 21  1  0
  7 22  1  0
 10 23  1  0
 11 24  1  0
 14 25  1  0
 15 26  1  0
 15 27  1  0
 16 28  1  0
 16 29  1  0
 17 30  1  0
 17 31  1  0
 18 32  1  0
 18 33  1  0
 19 34  1  0
 19 35  1  0
M  END
>  <Unnamed: 0>  (235) 
1392

>  <ID>  (235) 
TRAIN_1392

>  <Canonical_Smiles>  (235) 
O=C(NNc1ncnc2[nH]cnc12)C3CCCCC3

>  <Inhibition>  (235) 
6.16

>  <TDC_conf_true_inhibitor>  (235) 
0

>  <TDC_conf_non_inhibitor>  (235) 
1

>  <split>  (235) 
1

$$$$
235
     RDKit          3D

 42 44  0  0  0  0  0  0  0  0999 V2000
   -3.7536   -3.7357   -0.5694 C   0  0  0  0  0  0  0  0  0  0  0  0
   -3.8684   -2.3419   -0.3168 O   0  0  0  0  0  0  0  0  0  0  0  0
   -2.7072   -1.6237   -0.2046 C   0  0  0  0  0  0  0  0  0  0  0  0
   -1.4380   -2.1223   -0.4739 C   0  0  0  0  0  0  0  0  0  0  0  0
   -0.3109   -1.3099   -0.3060 C   0  0  0  0  0  0  0  0  0  0  0  0
   -0.4038    0.0262    0.1458 C   0  0  0  0  0  0  0  0  0  0  0  0
    0.7384    0.8578    0.3383 C   0  0  0  0  0  0  0  0  0  0  0  0
    0.5704    2.1754    0.7991 C   0  0  0  0  0  0  0  0  0  0  0  0
   -0.6990    2.6823    1.0728 C   0  0  0  0  0  0  0  0  0  0  0  0
   -1.8184    1.8690    0.8835 C   0  0  0  0  0  0  0  0  0  0  0  0
   -1.6960    0.5425    0.4173 C   0  0  0  0  0  0  0  0  0  0  0  0
   -2.8281   -0.2863    0.2110 C   0  0  0  0  0  0  0  0  0  0  0  0
   -4.0771    0.2292    0.5000 O   0  0  0  0  0  0  0  0  0  0  0  0
   -4.7590    0.5825   -0.7044 C   0  0  0  0  0  0  0  0  0  0  0  0
   -0.8091    4.0784    1.5591 C   0  0  0  0  0  0  0  0  0  0  0  0
    0.1209    4.8350    1.7690 O   0  0  0  0  0  0  0  0  0  0  0  0
   -2.0809    4.4671    1.7552 O   0  0  0  0  0  0  0  0  0  0  0  0
    2.1086    0.3898    0.0746 C   0  0  0  0  0  0  0  0  0  0  0  0
    2.8655   -0.2161    1.0873 C   0  0  0  0  0  0  0  0  0  0  0  0
    4.1670   -0.6598    0.8377 C   0  0  0  0  0  0  0  0  0  0  0  0
    4.7348   -0.5133   -0.4325 C   0  0  0  0  0  0  0  0  0  0  0  0
    6.1443   -0.9566   -0.6907 C   0  0  0  0  0  0  0  0  0  0  0  0
    3.9906    0.1071   -1.4418 C   0  0  0  0  0  0  0  0  0  0  0  0
    2.6891    0.5506   -1.1915 C   0  0  0  0  0  0  0  0  0  0  0  0
   -3.3362   -3.9206   -1.5645 H   0  0  0  0  0  0  0  0  0  0  0  0
   -3.1635   -4.2339    0.2070 H   0  0  0  0  0  0  0  0  0  0  0  0
   -4.7606   -4.1632   -0.5474 H   0  0  0  0  0  0  0  0  0  0  0  0
   -1.2800   -3.1399   -0.8152 H   0  0  0  0  0  0  0  0  0  0  0  0
    0.6615   -1.7481   -0.5282 H   0  0  0  0  0  0  0  0  0  0  0  0
    1.4455    2.8084    0.9470 H   0  0  0  0  0  0  0  0  0  0  0  0
   -2.8078    2.2659    1.1057 H   0  0  0  0  0  0  0  0  0  0  0  0
   -5.6398    1.1695   -0.4270 H   0  0  0  0  0  0  0  0  0  0  0  0
   -4.1335    1.2029   -1.3565 H   0  0  0  0  0  0  0  0  0  0  0  0
   -5.1047   -0.3049   -1.2430 H   0  0  0  0  0  0  0  0  0  0  0  0
   -1.9991    5.3900    2.0744 H   0  0  0  0  0  0  0  0  0  0  0  0
    2.4421   -0.3440    2.0817 H   0  0  0  0  0  0  0  0  0  0  0  0
    4.7344   -1.1195    1.6439 H   0  0  0  0  0  0  0  0  0  0  0  0
    6.8395   -0.1409   -0.4698 H   0  0  0  0  0  0  0  0  0  0  0  0
    6.2735   -1.2592   -1.7352 H   0  0  0  0  0  0  0  0  0  0  0  0
    6.4022   -1.8202   -0.0686 H   0  0  0  0  0  0  0  0  0  0  0  0
    4.4193    0.2515   -2.4310 H   0  0  0  0  0  0  0  0  0  0  0  0
    2.1270    1.0268   -1.9923 H   0  0  0  0  0  0  0  0  0  0  0  0
  1  2  1  0
  2  3  1  0
  3  4  2  0
  4  5  1  0
  5  6  2  0
  6  7  1  0
  7  8  2  0
  8  9  1  0
  9 10  2  0
 10 11  1  0
 11 12  2  0
 12 13  1  0
 13 14  1  0
  9 15  1  0
 15 16  2  0
 15 17  1  0
  7 18  1  0
 18 19  2  0
 19 20  1  0
 20 21  2  0
 21 22  1  0
 21 23  1  0
 23 24  2  0
 12  3  1  0
 11  6  1  0
 24 18  1  0
  1 25  1  0
  1 26  1  0
  1 27  1  0
  4 28  1  0
  5 29  1  0
  8 30  1  0
 10 31  1  0
 14 32  1  0
 14 33  1  0
 14 34  1  0
 17 35  1  0
 19 36  1  0
 20 37  1  0
 22 38  1  0
 22 39  1  0
 22 40  1  0
 23 41  1  0
 24 42  1  0
M  END
>  <Unnamed: 0>  (236) 
1395

>  <ID>  (236) 
TRAIN_1395

>  <Canonical_Smiles>  (236) 
COc1ccc2c(cc(cc2c1OC)C(=O)O)c3ccc(C)cc3

>  <Inhibition>  (236) 
10.9

>  <TDC_conf_true_inhibitor>  (236) 
0

>  <TDC_conf_non_inhibitor>  (236) 
1

>  <split>  (236) 
1

$$$$
236
     RDKit          3D

 25 28  0  0  0  0  0  0  0  0999 V2000
   -1.9768    2.6865    2.3950 O   0  0  0  0  0  0  0  0  0  0  0  0
   -1.4830    2.6050    1.0379 S   0  0  0  0  0  6  0  0  0  0  0  0
   -1.8123    3.5839    0.0256 O   0  0  0  0  0  0  0  0  0  0  0  0
    0.2951    2.4063    1.0909 C   0  0  0  0  0  0  0  0  0  0  0  0
    0.5376    1.1668    0.2456 C   0  0  0  0  0  0  0  0  0  0  0  0
    2.2256    0.4694    0.4788 S   0  0  0  0  0  0  0  0  0  0  0  0
    1.9826   -1.0604   -0.3719 C   0  0  0  0  0  0  0  0  0  0  0  0
    2.9854   -1.7980   -0.8678 N   0  0  0  0  0  0  0  0  0  0  0  0
    2.6510   -2.9522   -1.4940 C   0  0  0  0  0  0  0  0  0  0  0  0
    1.4251   -3.4768   -1.6922 N   0  0  0  0  0  0  0  0  0  0  0  0
    0.4482   -2.7124   -1.1737 C   0  0  0  0  0  0  0  0  0  0  0  0
   -0.9026   -2.9538   -1.1851 N   0  0  0  0  0  0  0  0  0  0  0  0
   -1.4513   -1.9379   -0.5424 C   0  0  0  0  0  0  0  0  0  0  0  0
   -0.5079   -1.0418   -0.1451 N   0  0  0  0  0  0  0  0  0  0  0  0
   -0.6101    0.1847    0.6139 C   0  0  0  0  0  0  0  0  0  0  0  0
   -1.8844    0.9871    0.3972 C   0  0  0  0  0  0  0  0  0  0  0  0
    0.7051   -1.5302   -0.5281 C   0  0  0  0  0  0  0  0  0  0  0  0
    0.7718    3.3015    0.6849 H   0  0  0  0  0  0  0  0  0  0  0  0
    0.5798    2.2640    2.1381 H   0  0  0  0  0  0  0  0  0  0  0  0
    0.4569    1.4368   -0.8172 H   0  0  0  0  0  0  0  0  0  0  0  0
    3.4814   -3.5315   -1.8890 H   0  0  0  0  0  0  0  0  0  0  0  0
   -2.5114   -1.8255   -0.3498 H   0  0  0  0  0  0  0  0  0  0  0  0
   -0.5322   -0.1042    1.6719 H   0  0  0  0  0  0  0  0  0  0  0  0
   -2.7403    0.5794    0.9402 H   0  0  0  0  0  0  0  0  0  0  0  0
   -2.1335    1.0915   -0.6635 H   0  0  0  0  0  0  0  0  0  0  0  0
  1  2  2  0
  2  3  2  0
  2  4  1  0
  4  5  1  0
  5  6  1  0
  6  7  1  0
  7  8  2  0
  8  9  1  0
  9 10  2  0
 10 11  1  0
 11 12  1  0
 12 13  2  0
 13 14  1  0
 14 15  1  0
 15 16  1  0
 14 17  1  0
 16  2  1  0
 15  5  1  0
 17  7  1  0
 17 11  2  0
  4 18  1  0
  4 19  1  0
  5 20  1  0
  9 21  1  0
 13 22  1  0
 15 23  1  0
 16 24  1  0
 16 25  1  0
M  END
>  <Unnamed: 0>  (237) 
1400

>  <ID>  (237) 
TRAIN_1400

>  <Canonical_Smiles>  (237) 
O=S1(=O)CC2Sc3ncnc4ncn(C2C1)c34

>  <Inhibition>  (237) 
0.89

>  <TDC_conf_true_inhibitor>  (237) 
0

>  <TDC_conf_non_inhibitor>  (237) 
1

>  <split>  (237) 
1

$$$$
237
     RDKit          3D

 58 61  0  0  0  0  0  0  0  0999 V2000
    3.4983    0.0307   -2.8108 C   0  0  0  0  0  0  0  0  0  0  0  0
    2.3145    0.3121   -1.9082 C   0  0  0  0  0  0  0  0  0  0  0  0
    1.1614   -0.1149   -2.3296 N   0  0  0  0  0  0  0  0  0  0  0  0
    0.0895    0.1101   -1.5237 C   0  0  0  0  0  0  0  0  0  0  0  0
   -1.1692   -0.2099   -1.7149 N   0  0  0  0  0  0  0  0  0  0  0  0
   -1.8067    0.2462   -0.5895 C   0  0  0  0  0  0  0  0  0  0  0  0
   -1.0007    0.8504    0.2942 N   0  0  0  0  0  0  0  0  0  0  0  0
    0.2148    0.7622   -0.2981 N   0  0  0  0  0  0  0  0  0  0  0  0
    1.4511    1.2445    0.1596 C   0  0  0  0  0  0  0  0  0  0  0  0
    1.4348    1.9156    1.5052 C   0  0  0  0  0  0  0  0  0  0  0  0
    2.5518    1.0678   -0.6106 C   0  0  0  0  0  0  0  0  0  0  0  0
    3.9365    1.5677   -0.2985 C   0  0  0  0  0  0  0  0  0  0  0  0
    4.8063    0.4789    0.3300 C   0  0  0  0  0  0  0  0  0  0  0  0
    4.3224   -0.5203    0.8501 O   0  0  0  0  0  0  0  0  0  0  0  0
    6.1539    0.7809    0.2461 N   0  0  0  0  0  0  0  0  0  0  0  0
    7.2412    0.0069    0.7102 C   0  0  0  0  0  0  0  0  0  0  0  0
    7.1218   -1.2323    1.3385 C   0  0  0  0  0  0  0  0  0  0  0  0
    8.2665   -1.9204    1.7612 C   0  0  0  0  0  0  0  0  0  0  0  0
    9.5365   -1.3779    1.5593 C   0  0  0  0  0  0  0  0  0  0  0  0
    9.6674   -0.1423    0.9320 C   0  0  0  0  0  0  0  0  0  0  0  0
    8.5251    0.5349    0.5156 C   0  0  0  0  0  0  0  0  0  0  0  0
    8.6604    1.7271   -0.0889 F   0  0  0  0  0  0  0  0  0  0  0  0
   -3.2454    0.0826   -0.3971 C   0  0  0  0  0  0  0  0  0  0  0  0
   -4.0255   -0.5370   -1.3772 C   0  0  0  0  0  0  0  0  0  0  0  0
   -5.4055   -0.6950   -1.1993 C   0  0  0  0  0  0  0  0  0  0  0  0
   -6.0558   -0.2402   -0.0364 C   0  0  0  0  0  0  0  0  0  0  0  0
   -5.2605    0.3787    0.9411 C   0  0  0  0  0  0  0  0  0  0  0  0
   -3.8787    0.5377    0.7639 C   0  0  0  0  0  0  0  0  0  0  0  0
   -7.5743   -0.4298    0.1235 C   0  0  0  0  0  0  0  0  0  0  0  0
   -7.9176   -1.9343    0.0751 C   0  0  0  0  0  0  0  0  0  0  0  0
   -8.1365    0.1252    1.4520 C   0  0  0  0  0  0  0  0  0  0  0  0
   -8.3117    0.2968   -1.0221 C   0  0  0  0  0  0  0  0  0  0  0  0
    3.8668    0.9672   -3.2379 H   0  0  0  0  0  0  0  0  0  0  0  0
    4.2958   -0.4661   -2.2539 H   0  0  0  0  0  0  0  0  0  0  0  0
    3.2004   -0.6276   -3.6327 H   0  0  0  0  0  0  0  0  0  0  0  0
    2.4339    2.1265    1.8945 H   0  0  0  0  0  0  0  0  0  0  0  0
    0.9448    1.2762    2.2486 H   0  0  0  0  0  0  0  0  0  0  0  0
    0.8894    2.8640    1.4506 H   0  0  0  0  0  0  0  0  0  0  0  0
    3.9143    2.4158    0.3938 H   0  0  0  0  0  0  0  0  0  0  0  0
    4.4155    1.9469   -1.2080 H   0  0  0  0  0  0  0  0  0  0  0  0
    6.4243    1.6588   -0.1871 H   0  0  0  0  0  0  0  0  0  0  0  0
    6.1559   -1.6950    1.5169 H   0  0  0  0  0  0  0  0  0  0  0  0
    8.1606   -2.8860    2.2513 H   0  0  0  0  0  0  0  0  0  0  0  0
   10.4189   -1.9195    1.8912 H   0  0  0  0  0  0  0  0  0  0  0  0
   10.6460    0.2961    0.7656 H   0  0  0  0  0  0  0  0  0  0  0  0
   -3.5643   -0.9042   -2.2925 H   0  0  0  0  0  0  0  0  0  0  0  0
   -5.9662   -1.1843   -1.9929 H   0  0  0  0  0  0  0  0  0  0  0  0
   -5.6876    0.7543    1.8667 H   0  0  0  0  0  0  0  0  0  0  0  0
   -3.3004    1.0228    1.5479 H   0  0  0  0  0  0  0  0  0  0  0  0
   -7.6550   -2.3879   -0.8868 H   0  0  0  0  0  0  0  0  0  0  0  0
   -8.9910   -2.0999    0.2247 H   0  0  0  0  0  0  0  0  0  0  0  0
   -7.3827   -2.4867    0.8565 H   0  0  0  0  0  0  0  0  0  0  0  0
   -7.6861   -0.3709    2.3196 H   0  0  0  0  0  0  0  0  0  0  0  0
   -9.2200   -0.0311    1.5185 H   0  0  0  0  0  0  0  0  0  0  0  0
   -7.9608    1.2033    1.5453 H   0  0  0  0  0  0  0  0  0  0  0  0
   -8.0529   -0.1097   -2.0058 H   0  0  0  0  0  0  0  0  0  0  0  0
   -9.3988    0.2048   -0.9137 H   0  0  0  0  0  0  0  0  0  0  0  0
   -8.0671    1.3654   -1.0331 H   0  0  0  0  0  0  0  0  0  0  0  0
  1  2  1  0
  2  3  2  0
  3  4  1  0
  4  5  2  0
  5  6  1  0
  6  7  2  0
  7  8  1  0
  8  9  1  0
  9 10  1  0
  9 11  2  0
 11 12  1  0
 12 13  1  0
 13 14  2  0
 13 15  1  0
 15 16  1  0
 16 17  2  0
 17 18  1  0
 18 19  2  0
 19 20  1  0
 20 21  2  0
 21 22  1  0
  6 23  1  0
 23 24  2  0
 24 25  1  0
 25 26  2  0
 26 27  1  0
 27 28  2  0
 26 29  1  0
 29 30  1  0
 29 31  1  0
 29 32  1  0
 11  2  1  0
  8  4  1  0
 21 16  1  0
 28 23  1  0
  1 33  1  0
  1 34  1  0
  1 35  1  0
 10 36  1  0
 10 37  1  0
 10 38  1  0
 12 39  1  0
 12 40  1  0
 15 41  1  0
 17 42  1  0
 18 43  1  0
 19 44  1  0
 20 45  1  0
 24 46  1  0
 25 47  1  0
 27 48  1  0
 28 49  1  0
 30 50  1  0
 30 51  1  0
 30 52  1  0
 31 53  1  0
 31 54  1  0
 31 55  1  0
 32 56  1  0
 32 57  1  0
 32 58  1  0
M  END
>  <Unnamed: 0>  (238) 
1403

>  <ID>  (238) 
TRAIN_1403

>  <Canonical_Smiles>  (238) 
Cc1nc2nc(nn2c(C)c1CC(=O)Nc3ccccc3F)c4ccc(cc4)C(C)(C)C

>  <Inhibition>  (238) 
9.91

>  <TDC_conf_true_inhibitor>  (238) 
0

>  <TDC_conf_non_inhibitor>  (238) 
1

>  <split>  (238) 
1

$$$$
238
     RDKit          3D

 27 28  0  0  0  0  0  0  0  0999 V2000
    2.2673   -2.1863    2.6565 C   0  0  0  0  0  0  0  0  0  0  0  0
    3.1578   -0.8377    3.4601 S   0  0  0  0  0  0  0  0  0  0  0  0
    2.4685    0.5308    2.6433 C   0  0  0  0  0  0  0  0  0  0  0  0
    1.6144    0.4263    1.6784 N   0  0  0  0  0  0  0  0  0  0  0  0
    1.2598    1.6822    1.2455 C   0  0  0  0  0  0  0  0  0  0  0  0
    0.3771    1.9603    0.2730 C   0  0  0  0  0  0  0  0  0  0  0  0
   -0.3766    0.9790   -0.5216 C   0  0  0  0  0  0  0  0  0  0  0  0
    0.2121   -0.1833   -1.0358 C   0  0  0  0  0  0  0  0  0  0  0  0
   -0.5325   -1.0749   -1.8151 C   0  0  0  0  0  0  0  0  0  0  0  0
   -1.8755   -0.8084   -2.1014 C   0  0  0  0  0  0  0  0  0  0  0  0
   -2.4663    0.3591   -1.6071 C   0  0  0  0  0  0  0  0  0  0  0  0
   -1.7178    1.2483   -0.8276 C   0  0  0  0  0  0  0  0  0  0  0  0
   -2.6253   -1.7826   -2.9305 C   0  0  0  0  0  0  0  0  0  0  0  0
   -2.1809   -2.8176   -3.3913 O   0  0  0  0  0  0  0  0  0  0  0  0
   -3.9008   -1.4140   -3.1443 O   0  0  0  0  0  0  0  0  0  0  0  0
    1.9224    2.8067    1.9653 C   0  0  0  0  0  0  0  0  0  0  0  0
    1.7738    4.0005    1.7726 O   0  0  0  0  0  0  0  0  0  0  0  0
    2.9754    2.1134    3.1680 S   0  0  0  0  0  0  0  0  0  0  0  0
    2.5941   -3.1372    3.0860 H   0  0  0  0  0  0  0  0  0  0  0  0
    2.4773   -2.2043    1.5835 H   0  0  0  0  0  0  0  0  0  0  0  0
    1.1900   -2.0891    2.8175 H   0  0  0  0  0  0  0  0  0  0  0  0
    0.1557    3.0010    0.0379 H   0  0  0  0  0  0  0  0  0  0  0  0
    1.2580   -0.4091   -0.8399 H   0  0  0  0  0  0  0  0  0  0  0  0
   -0.0572   -1.9753   -2.1998 H   0  0  0  0  0  0  0  0  0  0  0  0
   -3.5072    0.5890   -1.8218 H   0  0  0  0  0  0  0  0  0  0  0  0
   -2.1990    2.1507   -0.4551 H   0  0  0  0  0  0  0  0  0  0  0  0
   -4.2645   -2.1380   -3.6961 H   0  0  0  0  0  0  0  0  0  0  0  0
  1  2  1  0
  2  3  1  0
  3  4  2  0
  4  5  1  0
  5  6  2  0
  6  7  1  0
  7  8  2  0
  8  9  1  0
  9 10  2  0
 10 11  1  0
 11 12  2  0
 10 13  1  0
 13 14  2  0
 13 15  1  0
  5 16  1  0
 16 17  2  0
 16 18  1  0
 18  3  1  0
 12  7  1  0
  1 19  1  0
  1 20  1  0
  1 21  1  0
  6 22  1  0
  8 23  1  0
  9 24  1  0
 11 25  1  0
 12 26  1  0
 15 27  1  0
M  END
>  <Unnamed: 0>  (239) 
1408

>  <ID>  (239) 
TRAIN_1408

>  <Canonical_Smiles>  (239) 
CSC1=N\C(=C/c2ccc(cc2)C(=O)O)\C(=O)S1

>  <Inhibition>  (239) 
4.0

>  <TDC_conf_true_inhibitor>  (239) 
0

>  <TDC_conf_non_inhibitor>  (239) 
1

>  <split>  (239) 
1

$$$$
239
     RDKit          3D

 35 37  0  0  0  0  0  0  0  0999 V2000
   -3.6941    0.0728    2.8839 C   0  0  0  0  0  0  0  0  0  0  0  0
   -3.3506    1.2694    2.0101 C   0  0  0  0  0  0  0  0  0  0  0  0
   -2.8971    0.8473    0.6357 C   0  0  0  0  0  0  0  0  0  0  0  0
   -3.8146    0.7289   -0.4090 C   0  0  0  0  0  0  0  0  0  0  0  0
   -3.3826    0.3307   -1.6696 C   0  0  0  0  0  0  0  0  0  0  0  0
   -2.0318    0.0417   -1.8972 C   0  0  0  0  0  0  0  0  0  0  0  0
   -1.0800    0.1368   -0.8721 C   0  0  0  0  0  0  0  0  0  0  0  0
   -1.5448    0.5456    0.3947 C   0  0  0  0  0  0  0  0  0  0  0  0
    0.3159   -0.1605   -1.0855 N   0  0  0  0  0  0  0  0  0  0  0  0
    1.0823   -0.3921    0.1017 N   0  0  0  0  0  0  0  0  0  0  0  0
    0.6195   -1.4037    0.9556 O   0  0  0  0  0  0  0  0  0  0  0  0
    2.4884   -0.2689   -0.0036 C   0  0  0  0  0  0  0  0  0  0  0  0
    3.3000   -0.3298    1.1381 C   0  0  0  0  0  0  0  0  0  0  0  0
    4.6897   -0.2291    1.0330 C   0  0  0  0  0  0  0  0  0  0  0  0
    5.2842   -0.0789   -0.2188 C   0  0  0  0  0  0  0  0  0  0  0  0
    4.4905   -0.0332   -1.3644 C   0  0  0  0  0  0  0  0  0  0  0  0
    3.1030   -0.1286   -1.2437 C   0  0  0  0  0  0  0  0  0  0  0  0
    2.3035   -0.1320   -2.3768 N   0  0  0  0  0  0  0  0  0  0  0  0
    0.9336   -0.1264   -2.3448 C   0  0  0  0  0  0  0  0  0  0  0  0
    0.3684   -0.0438   -3.4376 O   0  0  0  0  0  0  0  0  0  0  0  0
   -2.8268   -0.5820    3.0205 H   0  0  0  0  0  0  0  0  0  0  0  0
   -4.4988   -0.5238    2.4410 H   0  0  0  0  0  0  0  0  0  0  0  0
   -4.0252    0.4083    3.8719 H   0  0  0  0  0  0  0  0  0  0  0  0
   -2.5657    1.8668    2.4900 H   0  0  0  0  0  0  0  0  0  0  0  0
   -4.2230    1.9286    1.9259 H   0  0  0  0  0  0  0  0  0  0  0  0
   -4.8678    0.9464   -0.2482 H   0  0  0  0  0  0  0  0  0  0  0  0
   -4.0966    0.2379   -2.4845 H   0  0  0  0  0  0  0  0  0  0  0  0
   -1.7659   -0.2883   -2.8966 H   0  0  0  0  0  0  0  0  0  0  0  0
   -0.8459    0.6620    1.2211 H   0  0  0  0  0  0  0  0  0  0  0  0
    0.3471   -2.0882    0.3196 H   0  0  0  0  0  0  0  0  0  0  0  0
    2.8427   -0.4489    2.1177 H   0  0  0  0  0  0  0  0  0  0  0  0
    5.3051   -0.2698    1.9282 H   0  0  0  0  0  0  0  0  0  0  0  0
    6.3656   -0.0030   -0.3016 H   0  0  0  0  0  0  0  0  0  0  0  0
    4.9609    0.0719   -2.3376 H   0  0  0  0  0  0  0  0  0  0  0  0
    2.7107   -0.0482   -3.2973 H   0  0  0  0  0  0  0  0  0  0  0  0
  1  2  1  0
  2  3  1  0
  3  4  2  0
  4  5  1  0
  5  6  2  0
  6  7  1  0
  7  8  2  0
  7  9  1  0
  9 10  1  0
 10 11  1  0
 10 12  1  0
 12 13  2  0
 13 14  1  0
 14 15  2  0
 15 16  1  0
 16 17  2  0
 17 18  1  0
 18 19  1  0
 19 20  2  0
  8  3  1  0
 19  9  1  0
 17 12  1  0
  1 21  1  0
  1 22  1  0
  1 23  1  0
  2 24  1  0
  2 25  1  0
  4 26  1  0
  5 27  1  0
  6 28  1  0
  8 29  1  0
 11 30  1  0
 13 31  1  0
 14 32  1  0
 15 33  1  0
 16 34  1  0
 18 35  1  0
M  END
>  <Unnamed: 0>  (240) 
1417

>  <ID>  (240) 
TRAIN_1417

>  <Canonical_Smiles>  (240) 
CCc1cccc(c1)N2N(O)c3ccccc3NC2=O

>  <Inhibition>  (240) 
2.08

>  <TDC_conf_true_inhibitor>  (240) 
0

>  <TDC_conf_non_inhibitor>  (240) 
0

>  <split>  (240) 
1

$$$$
240
     RDKit          3D

 55 58  0  0  0  0  0  0  0  0999 V2000
    1.8903    2.9240    2.5384 C   0  0  0  0  0  0  0  0  0  0  0  0
    1.5750    1.7649    1.7755 O   0  0  0  0  0  0  0  0  0  0  0  0
    2.4963    1.3719    0.8420 C   0  0  0  0  0  0  0  0  0  0  0  0
    3.5786    2.1286    0.4011 C   0  0  0  0  0  0  0  0  0  0  0  0
    4.4278    1.6273   -0.5898 C   0  0  0  0  0  0  0  0  0  0  0  0
    4.1903    0.3696   -1.1511 C   0  0  0  0  0  0  0  0  0  0  0  0
    4.9569   -0.2077   -2.1394 O   0  0  0  0  0  0  0  0  0  0  0  0
    6.1042    0.5119   -2.5737 C   0  0  0  0  0  0  0  0  0  0  0  0
    3.0892   -0.4087   -0.7197 C   0  0  0  0  0  0  0  0  0  0  0  0
    2.8917   -1.6664   -1.3302 N   0  0  0  0  0  0  0  0  0  0  0  0
    1.9323   -2.5971   -1.1419 C   0  0  0  0  0  0  0  0  0  0  0  0
    0.9888   -2.6141   -0.2245 N   0  0  0  0  0  0  0  0  0  0  0  0
    0.1850   -3.7393   -0.3508 C   0  0  0  0  0  0  0  0  0  0  0  0
   -0.9295   -3.9445    0.6183 C   0  0  0  0  0  0  0  0  0  0  0  0
   -2.2646   -3.5642    0.0053 C   0  0  0  0  0  0  0  0  0  0  0  0
   -2.7368   -4.1479   -0.9682 O   0  0  0  0  0  0  0  0  0  0  0  0
   -2.9092   -2.5259    0.6466 N   0  0  0  0  0  0  0  0  0  0  0  0
   -4.0850   -1.8970    0.0659 C   0  0  0  0  0  0  0  0  0  0  0  0
   -3.7235   -0.8420   -0.9882 C   0  0  0  0  0  0  0  0  0  0  0  0
   -2.9059    0.2754   -0.4112 C   0  0  0  0  0  0  0  0  0  0  0  0
   -1.5281    0.3685   -0.4378 C   0  0  0  0  0  0  0  0  0  0  0  0
   -1.1574    1.4949    0.2439 N   0  0  0  0  0  0  0  0  0  0  0  0
   -2.2707    2.1613    0.6993 C   0  0  0  0  0  0  0  0  0  0  0  0
   -2.3714    3.3482    1.4347 C   0  0  0  0  0  0  0  0  0  0  0  0
   -3.6524    3.7959    1.7700 C   0  0  0  0  0  0  0  0  0  0  0  0
   -4.7849    3.0819    1.3858 C   0  0  0  0  0  0  0  0  0  0  0  0
   -4.6657    1.8950    0.6530 C   0  0  0  0  0  0  0  0  0  0  0  0
   -3.3850    1.4226    0.2990 C   0  0  0  0  0  0  0  0  0  0  0  0
    0.5371   -4.5811   -1.3864 C   0  0  0  0  0  0  0  0  0  0  0  0
    1.9011   -3.9631   -2.2065 S   0  0  0  0  0  0  0  0  0  0  0  0
    2.2654    0.1082    0.2863 C   0  0  0  0  0  0  0  0  0  0  0  0
    1.8625    3.8218    1.9125 H   0  0  0  0  0  0  0  0  0  0  0  0
    1.1231    3.0332    3.3108 H   0  0  0  0  0  0  0  0  0  0  0  0
    2.8579    2.8206    3.0406 H   0  0  0  0  0  0  0  0  0  0  0  0
    3.7861    3.1167    0.7986 H   0  0  0  0  0  0  0  0  0  0  0  0
    5.2586    2.2486   -0.9068 H   0  0  0  0  0  0  0  0  0  0  0  0
    6.6108   -0.0939   -3.3314 H   0  0  0  0  0  0  0  0  0  0  0  0
    6.8078    0.6696   -1.7496 H   0  0  0  0  0  0  0  0  0  0  0  0
    5.8202    1.4603   -3.0418 H   0  0  0  0  0  0  0  0  0  0  0  0
    3.5610   -1.8246   -2.0779 H   0  0  0  0  0  0  0  0  0  0  0  0
   -0.7431   -3.3635    1.5288 H   0  0  0  0  0  0  0  0  0  0  0  0
   -0.9872   -4.9959    0.9229 H   0  0  0  0  0  0  0  0  0  0  0  0
   -2.3469   -1.9289    1.2436 H   0  0  0  0  0  0  0  0  0  0  0  0
   -4.6421   -1.4442    0.8933 H   0  0  0  0  0  0  0  0  0  0  0  0
   -4.7165   -2.6691   -0.3870 H   0  0  0  0  0  0  0  0  0  0  0  0
   -4.6444   -0.4337   -1.4212 H   0  0  0  0  0  0  0  0  0  0  0  0
   -3.1694   -1.3106   -1.8112 H   0  0  0  0  0  0  0  0  0  0  0  0
   -0.7782   -0.2855   -0.8662 H   0  0  0  0  0  0  0  0  0  0  0  0
   -0.2020    1.7836    0.4130 H   0  0  0  0  0  0  0  0  0  0  0  0
   -1.4898    3.9041    1.7348 H   0  0  0  0  0  0  0  0  0  0  0  0
   -3.7654    4.7158    2.3389 H   0  0  0  0  0  0  0  0  0  0  0  0
   -5.7720    3.4480    1.6564 H   0  0  0  0  0  0  0  0  0  0  0  0
   -5.5560    1.3473    0.3594 H   0  0  0  0  0  0  0  0  0  0  0  0
    0.0638   -5.5046   -1.6893 H   0  0  0  0  0  0  0  0  0  0  0  0
    1.4212   -0.4666    0.6546 H   0  0  0  0  0  0  0  0  0  0  0  0
  1  2  1  0
  2  3  1  0
  3  4  2  0
  4  5  1  0
  5  6  2  0
  6  7  1  0
  7  8  1  0
  6  9  1  0
  9 10  1  0
 10 11  1  0
 11 12  2  0
 12 13  1  0
 13 14  1  0
 14 15  1  0
 15 16  2  0
 15 17  1  0
 17 18  1  0
 18 19  1  0
 19 20  1  0
 20 21  2  0
 21 22  1  0
 22 23  1  0
 23 24  2  0
 24 25  1  0
 25 26  2  0
 26 27  1  0
 27 28  2  0
 13 29  2  0
 29 30  1  0
  9 31  2  0
 31  3  1  0
 30 11  1  0
 28 20  1  0
 28 23  1  0
  1 32  1  0
  1 33  1  0
  1 34  1  0
  4 35  1  0
  5 36  1  0
  8 37  1  0
  8 38  1  0
  8 39  1  0
 10 40  1  0
 14 41  1  0
 14 42  1  0
 17 43  1  0
 18 44  1  0
 18 45  1  0
 19 46  1  0
 19 47  1  0
 21 48  1  0
 22 49  1  0
 24 50  1  0
 25 51  1  0
 26 52  1  0
 27 53  1  0
 29 54  1  0
 31 55  1  0
M  END
>  <Unnamed: 0>  (241) 
1426

>  <ID>  (241) 
TRAIN_1426

>  <Canonical_Smiles>  (241) 
COc1ccc(OC)c(Nc2nc(CC(=O)NCCc3c[nH]c4ccccc34)cs2)c1

>  <Inhibition>  (241) 
90.9

>  <TDC_conf_true_inhibitor>  (241) 
1

>  <TDC_conf_non_inhibitor>  (241) 
0

>  <split>  (241) 
1

$$$$
241
     RDKit          3D

 72 76  0  0  0  0  0  0  0  0999 V2000
    3.6174    1.7119   -2.8556 C   0  0  0  0  0  0  0  0  0  0  0  0
    3.7005    0.7110   -1.6798 C   0  0  0  0  0  0  0  0  0  0  0  0
    3.2739   -0.6616   -2.2340 C   0  0  0  0  0  0  0  0  0  0  0  0
    2.7215    1.1875   -0.5726 C   0  0  0  0  0  0  0  0  0  0  0  0
    2.9543    0.4759    0.7435 C   0  0  0  0  0  0  0  0  0  0  0  0
    2.0037   -0.2128    1.4047 C   0  0  0  0  0  0  0  0  0  0  0  0
    2.1747   -0.9557    2.6384 C   0  0  0  0  0  0  0  0  0  0  0  0
    1.0483   -1.5609    3.0316 C   0  0  0  0  0  0  0  0  0  0  0  0
   -0.0820   -1.3182    2.0817 C   0  0  0  0  0  0  0  0  0  0  0  0
   -1.3040   -0.4928    2.5714 C   0  0  0  0  0  0  0  0  0  0  0  0
   -0.8371    0.7690    3.2742 C   0  0  0  0  0  0  0  0  0  0  0  0
   -0.2932    1.5693    2.3393 C   0  0  0  0  0  0  0  0  0  0  0  0
   -0.3997    0.8460    1.0102 C   0  0  0  0  0  0  0  0  0  0  0  0
    0.5540   -0.3866    0.9833 C   0  0  0  0  0  0  0  0  0  0  0  0
   -1.6901    0.0814    1.2252 C   0  0  0  0  0  0  0  0  0  0  0  0
   -2.8056   -0.0302    0.4860 C   0  0  0  0  0  0  0  0  0  0  0  0
   -3.9796   -0.8804    0.9118 C   0  0  0  0  0  0  0  0  0  0  0  0
   -4.8359   -1.3910   -0.2774 C   0  0  0  0  0  0  0  0  0  0  0  0
   -6.1105   -2.0477    0.2863 C   0  0  0  0  0  0  0  0  0  0  0  0
   -4.0707   -2.4630   -1.0819 C   0  0  0  0  0  0  0  0  0  0  0  0
   -5.2938   -0.3205   -1.1853 N   0  0  0  0  0  0  0  0  0  0  0  0
   -4.4573    0.8940   -1.2552 C   0  0  0  0  0  0  0  0  0  0  0  0
   -4.4784    1.4007   -2.7126 C   0  0  0  0  0  0  0  0  0  0  0  0
   -5.1217    1.9751   -0.3789 C   0  0  0  0  0  0  0  0  0  0  0  0
   -2.9767    0.6794   -0.8369 C   0  0  0  0  0  0  0  0  0  0  0  0
    4.3936    0.6380    1.1846 C   0  0  0  0  0  0  0  0  0  0  0  0
    5.3962    0.1449    0.1073 C   0  0  0  0  0  0  0  0  0  0  0  0
    5.4624   -1.3937    0.0809 C   0  0  0  0  0  0  0  0  0  0  0  0
    6.8058    0.6456    0.4992 C   0  0  0  0  0  0  0  0  0  0  0  0
    5.1176    0.7006   -1.2407 N   0  0  0  0  0  0  0  0  0  0  0  0
    3.9104    2.7224   -2.5465 H   0  0  0  0  0  0  0  0  0  0  0  0
    4.2731    1.4132   -3.6824 H   0  0  0  0  0  0  0  0  0  0  0  0
    2.5961    1.7752   -3.2493 H   0  0  0  0  0  0  0  0  0  0  0  0
    2.3317   -0.5804   -2.7897 H   0  0  0  0  0  0  0  0  0  0  0  0
    4.0236   -1.0618   -2.9265 H   0  0  0  0  0  0  0  0  0  0  0  0
    3.1024   -1.4039   -1.4528 H   0  0  0  0  0  0  0  0  0  0  0  0
    2.8537    2.2638   -0.3946 H   0  0  0  0  0  0  0  0  0  0  0  0
    1.6934    1.0657   -0.9290 H   0  0  0  0  0  0  0  0  0  0  0  0
    3.1018   -1.0169    3.1892 H   0  0  0  0  0  0  0  0  0  0  0  0
    0.9573   -2.1617    3.9254 H   0  0  0  0  0  0  0  0  0  0  0  0
   -0.4074   -2.2657    1.6317 H   0  0  0  0  0  0  0  0  0  0  0  0
   -2.0726   -1.0503    3.1066 H   0  0  0  0  0  0  0  0  0  0  0  0
   -0.8656    0.9448    4.3379 H   0  0  0  0  0  0  0  0  0  0  0  0
    0.2024    2.5128    2.5044 H   0  0  0  0  0  0  0  0  0  0  0  0
   -0.3643    1.4969    0.1372 H   0  0  0  0  0  0  0  0  0  0  0  0
    0.5032   -0.8960    0.0101 H   0  0  0  0  0  0  0  0  0  0  0  0
   -4.6058   -0.2844    1.5880 H   0  0  0  0  0  0  0  0  0  0  0  0
   -3.6315   -1.7428    1.4945 H   0  0  0  0  0  0  0  0  0  0  0  0
   -6.7435   -2.4527   -0.5125 H   0  0  0  0  0  0  0  0  0  0  0  0
   -5.8618   -2.8754    0.9607 H   0  0  0  0  0  0  0  0  0  0  0  0
   -6.7127   -1.3282    0.8539 H   0  0  0  0  0  0  0  0  0  0  0  0
   -3.1713   -2.0664   -1.5616 H   0  0  0  0  0  0  0  0  0  0  0  0
   -4.6985   -2.8915   -1.8725 H   0  0  0  0  0  0  0  0  0  0  0  0
   -3.7585   -3.2890   -0.4322 H   0  0  0  0  0  0  0  0  0  0  0  0
   -5.4636   -0.7042   -2.1137 H   0  0  0  0  0  0  0  0  0  0  0  0
   -4.0364    0.6663   -3.3964 H   0  0  0  0  0  0  0  0  0  0  0  0
   -5.5008    1.6005   -3.0549 H   0  0  0  0  0  0  0  0  0  0  0  0
   -3.9091    2.3319   -2.8142 H   0  0  0  0  0  0  0  0  0  0  0  0
   -5.1701    1.6926    0.6767 H   0  0  0  0  0  0  0  0  0  0  0  0
   -6.1481    2.1776   -0.7083 H   0  0  0  0  0  0  0  0  0  0  0  0
   -4.5688    2.9199   -0.4381 H   0  0  0  0  0  0  0  0  0  0  0  0
   -2.4641    0.0862   -1.6054 H   0  0  0  0  0  0  0  0  0  0  0  0
   -2.4720    1.6535   -0.8105 H   0  0  0  0  0  0  0  0  0  0  0  0
    4.5574    1.7072    1.3803 H   0  0  0  0  0  0  0  0  0  0  0  0
    4.6009    0.1315    2.1325 H   0  0  0  0  0  0  0  0  0  0  0  0
    6.0748   -1.7515   -0.7549 H   0  0  0  0  0  0  0  0  0  0  0  0
    4.4802   -1.8634    0.0074 H   0  0  0  0  0  0  0  0  0  0  0  0
    5.9166   -1.7786    1.0022 H   0  0  0  0  0  0  0  0  0  0  0  0
    7.0969    0.2730    1.4884 H   0  0  0  0  0  0  0  0  0  0  0  0
    7.5638    0.3084   -0.2181 H   0  0  0  0  0  0  0  0  0  0  0  0
    6.8481    1.7407    0.5388 H   0  0  0  0  0  0  0  0  0  0  0  0
    5.4511    1.6655   -1.2504 H   0  0  0  0  0  0  0  0  0  0  0  0
  1  2  1  0
  2  3  1  0
  2  4  1  0
  4  5  1  0
  5  6  2  3
  6  7  1  0
  7  8  2  0
  8  9  1  0
  9 10  1  0
 10 11  1  0
 11 12  2  0
 12 13  1  0
 13 14  1  0
 13 15  1  0
 15 16  2  3
 16 17  1  0
 17 18  1  0
 18 19  1  0
 18 20  1  0
 18 21  1  0
 21 22  1  0
 22 23  1  0
 22 24  1  0
 22 25  1  0
  5 26  1  0
 26 27  1  0
 27 28  1  0
 27 29  1  0
 27 30  1  0
 30  2  1  0
 14  6  1  0
 14  9  1  0
 15 10  1  0
 25 16  1  0
  1 31  1  0
  1 32  1  0
  1 33  1  0
  3 34  1  0
  3 35  1  0
  3 36  1  0
  4 37  1  0
  4 38  1  0
  7 39  1  0
  8 40  1  0
  9 41  1  0
 10 42  1  0
 11 43  1  0
 12 44  1  0
 13 45  1  0
 14 46  1  0
 17 47  1  0
 17 48  1  0
 19 49  1  0
 19 50  1  0
 19 51  1  0
 20 52  1  0
 20 53  1  0
 20 54  1  0
 21 55  1  0
 23 56  1  0
 23 57  1  0
 23 58  1  0
 24 59  1  0
 24 60  1  0
 24 61  1  0
 25 62  1  0
 25 63  1  0
 26 64  1  0
 26 65  1  0
 28 66  1  0
 28 67  1  0
 28 68  1  0
 29 69  1  0
 29 70  1  0
 29 71  1  0
 30 72  1  0
M  END
>  <Unnamed: 0>  (242) 
1435

>  <ID>  (242) 
TRAIN_1435

>  <Canonical_Smiles>  (242) 
CC1(C)CC(=C2C=CC3C4C=CC(C23)C4=C5CC(C)(C)NC(C)(C)C5)CC(C)(C)N1

>  <Inhibition>  (242) 
24.7

>  <TDC_conf_true_inhibitor>  (242) 
1

>  <TDC_conf_non_inhibitor>  (242) 
0

>  <split>  (242) 
1

$$$$
242
     RDKit          3D

 30 32  0  0  0  0  0  0  0  0999 V2000
   -1.4799    3.7892    0.0295 C   0  0  0  0  0  0  0  0  0  0  0  0
   -0.6204    2.7887    0.5764 O   0  0  0  0  0  0  0  0  0  0  0  0
   -1.1459    1.5300    0.4442 C   0  0  0  0  0  0  0  0  0  0  0  0
   -2.3301    1.2059    1.1118 C   0  0  0  0  0  0  0  0  0  0  0  0
   -2.8287   -0.0974    1.0668 C   0  0  0  0  0  0  0  0  0  0  0  0
   -2.1706   -1.0866    0.3360 C   0  0  0  0  0  0  0  0  0  0  0  0
   -2.6210   -2.4099    0.3823 N   0  0  0  0  0  0  0  0  0  0  0  0
   -0.9421   -0.7801   -0.2597 C   0  0  0  0  0  0  0  0  0  0  0  0
   -0.4237    0.5268   -0.2177 C   0  0  0  0  0  0  0  0  0  0  0  0
    0.7715    0.8392   -0.9140 N   0  0  0  0  0  0  0  0  0  0  0  0
    0.8508    1.9939   -1.6368 N   0  0  0  0  0  0  0  0  0  0  0  0
    1.8868    1.8622   -2.4497 N   0  0  0  0  0  0  0  0  0  0  0  0
    2.5342    0.6814   -2.2316 N   0  0  0  0  0  0  0  0  0  0  0  0
    1.8905    0.0956   -1.2400 C   0  0  0  0  0  0  0  0  0  0  0  0
    2.3824   -1.0262   -0.6011 N   0  0  0  0  0  0  0  0  0  0  0  0
    3.4738   -1.7899   -0.9561 C   0  0  0  0  0  0  0  0  0  0  0  0
    3.6116   -2.7659    0.0009 C   0  0  0  0  0  0  0  0  0  0  0  0
    2.5738   -2.5094    0.9095 C   0  0  0  0  0  0  0  0  0  0  0  0
    1.8339   -1.4570    0.5551 N   0  0  0  0  0  0  0  0  0  0  0  0
   -0.8835    4.6936   -0.1245 H   0  0  0  0  0  0  0  0  0  0  0  0
   -2.2846    4.0324    0.7302 H   0  0  0  0  0  0  0  0  0  0  0  0
   -1.8931    3.4871   -0.9398 H   0  0  0  0  0  0  0  0  0  0  0  0
   -2.8525    1.9521    1.7035 H   0  0  0  0  0  0  0  0  0  0  0  0
   -3.7352   -0.3348    1.6176 H   0  0  0  0  0  0  0  0  0  0  0  0
   -3.6186   -2.5060    0.5437 H   0  0  0  0  0  0  0  0  0  0  0  0
   -2.2921   -2.9941   -0.3794 H   0  0  0  0  0  0  0  0  0  0  0  0
   -0.4166   -1.5730   -0.7847 H   0  0  0  0  0  0  0  0  0  0  0  0
    4.0417   -1.5626   -1.8479 H   0  0  0  0  0  0  0  0  0  0  0  0
    4.3617   -3.5430    0.0415 H   0  0  0  0  0  0  0  0  0  0  0  0
    2.3259   -3.0422    1.8196 H   0  0  0  0  0  0  0  0  0  0  0  0
  1  2  1  0
  2  3  1  0
  3  4  2  0
  4  5  1  0
  5  6  2  0
  6  7  1  0
  6  8  1  0
  8  9  2  0
  9 10  1  0
 10 11  1  0
 11 12  2  0
 12 13  1  0
 13 14  2  0
 14 15  1  0
 15 16  1  0
 16 17  2  0
 17 18  1  0
 18 19  2  0
  9  3  1  0
 14 10  1  0
 19 15  1  0
  1 20  1  0
  1 21  1  0
  1 22  1  0
  4 23  1  0
  5 24  1  0
  7 25  1  0
  7 26  1  0
  8 27  1  0
 16 28  1  0
 17 29  1  0
 18 30  1  0
M  END
>  <Unnamed: 0>  (243) 
1438

>  <ID>  (243) 
TRAIN_1438

>  <Canonical_Smiles>  (243) 
COc1ccc(N)cc1n2nnnc2n3cccn3

>  <Inhibition>  (243) 
10.2

>  <TDC_conf_true_inhibitor>  (243) 
0

>  <TDC_conf_non_inhibitor>  (243) 
0

>  <split>  (243) 
1

$$$$
243
     RDKit          3D

 62 65  0  0  0  0  0  0  0  0999 V2000
   -4.6856   -4.7107   -1.7715 C   0  0  0  0  0  0  0  0  0  0  0  0
   -3.3701   -4.4079   -2.2199 O   0  0  0  0  0  0  0  0  0  0  0  0
   -2.3601   -5.1766   -1.5518 C   0  0  0  0  0  0  0  0  0  0  0  0
   -2.0354   -4.6014   -0.1711 C   0  0  0  0  0  0  0  0  0  0  0  0
   -1.6677   -3.1877   -0.2751 N   0  0  0  0  0  0  0  0  0  0  0  0
   -1.2103   -2.3798    0.7501 C   0  0  0  0  0  0  0  0  0  0  0  0
   -0.9747   -2.9796    2.3056 S   0  0  0  0  0  0  0  0  0  0  0  0
   -0.9544   -1.0495    0.3510 N   0  0  0  0  0  0  0  0  0  0  0  0
   -1.0834   -0.6316   -1.0609 C   0  0  0  0  0  0  0  0  0  0  0  0
   -0.4922    0.7279   -1.4310 C   0  0  0  0  0  0  0  0  0  0  0  0
   -0.9378    1.7715   -0.4521 C   0  0  0  0  0  0  0  0  0  0  0  0
   -1.2335    3.0794   -0.8563 C   0  0  0  0  0  0  0  0  0  0  0  0
   -1.6432    4.0356    0.0793 C   0  0  0  0  0  0  0  0  0  0  0  0
   -1.9616    5.3356   -0.2281 O   0  0  0  0  0  0  0  0  0  0  0  0
   -1.7762    5.7608   -1.5699 C   0  0  0  0  0  0  0  0  0  0  0  0
   -1.7567    3.6760    1.4367 C   0  0  0  0  0  0  0  0  0  0  0  0
   -2.1702    4.6690    2.2912 O   0  0  0  0  0  0  0  0  0  0  0  0
   -2.4071    4.3191    3.6452 C   0  0  0  0  0  0  0  0  0  0  0  0
   -1.4358    2.3730    1.8361 C   0  0  0  0  0  0  0  0  0  0  0  0
   -1.0197    1.4135    0.8973 C   0  0  0  0  0  0  0  0  0  0  0  0
   -0.6139    0.0121    1.3451 C   0  0  0  0  0  0  0  0  0  0  0  0
    0.8769   -0.0060    1.7963 C   0  0  0  0  0  0  0  0  0  0  0  0
    1.7732   -0.0736    0.6788 O   0  0  0  0  0  0  0  0  0  0  0  0
    3.1280   -0.0401    0.9342 C   0  0  0  0  0  0  0  0  0  0  0  0
    3.7118    0.2116    2.1141 C   0  0  0  0  0  0  0  0  0  0  0  0
    5.1703    0.2735    2.2870 C   0  0  0  0  0  0  0  0  0  0  0  0
    5.6539    0.4914    3.3927 O   0  0  0  0  0  0  0  0  0  0  0  0
    5.9542    0.0969    1.1615 O   0  0  0  0  0  0  0  0  0  0  0  0
    5.3699   -0.2109   -0.0796 C   0  0  0  0  0  0  0  0  0  0  0  0
    6.2465   -0.4350   -1.1420 C   0  0  0  0  0  0  0  0  0  0  0  0
    5.7311   -0.7773   -2.3888 C   0  0  0  0  0  0  0  0  0  0  0  0
    4.3524   -0.8969   -2.5589 C   0  0  0  0  0  0  0  0  0  0  0  0
    3.4864   -0.6634   -1.4843 C   0  0  0  0  0  0  0  0  0  0  0  0
    3.9864   -0.3040   -0.2269 C   0  0  0  0  0  0  0  0  0  0  0  0
   -4.8153   -4.4334   -0.7212 H   0  0  0  0  0  0  0  0  0  0  0  0
   -5.3917   -4.1275   -2.3699 H   0  0  0  0  0  0  0  0  0  0  0  0
   -4.9058   -5.7739   -1.9135 H   0  0  0  0  0  0  0  0  0  0  0  0
   -1.4649   -5.1274   -2.1817 H   0  0  0  0  0  0  0  0  0  0  0  0
   -2.6587   -6.2287   -1.4838 H   0  0  0  0  0  0  0  0  0  0  0  0
   -1.2079   -5.1579    0.2802 H   0  0  0  0  0  0  0  0  0  0  0  0
   -2.9039   -4.6654    0.4919 H   0  0  0  0  0  0  0  0  0  0  0  0
   -2.1894   -2.7204   -1.0041 H   0  0  0  0  0  0  0  0  0  0  0  0
   -2.1609   -0.6152   -1.2752 H   0  0  0  0  0  0  0  0  0  0  0  0
   -0.6302   -1.3960   -1.7034 H   0  0  0  0  0  0  0  0  0  0  0  0
   -0.8136    0.9861   -2.4470 H   0  0  0  0  0  0  0  0  0  0  0  0
    0.6006    0.6950   -1.4393 H   0  0  0  0  0  0  0  0  0  0  0  0
   -1.1421    3.3266   -1.9088 H   0  0  0  0  0  0  0  0  0  0  0  0
   -0.7315    5.6528   -1.8817 H   0  0  0  0  0  0  0  0  0  0  0  0
   -2.4492    5.2264   -2.2489 H   0  0  0  0  0  0  0  0  0  0  0  0
   -2.0289    6.8240   -1.6205 H   0  0  0  0  0  0  0  0  0  0  0  0
   -1.4787    4.0213    4.1415 H   0  0  0  0  0  0  0  0  0  0  0  0
   -2.7881    5.2073    4.1583 H   0  0  0  0  0  0  0  0  0  0  0  0
   -3.1679    3.5371    3.7262 H   0  0  0  0  0  0  0  0  0  0  0  0
   -1.4943    2.0818    2.8802 H   0  0  0  0  0  0  0  0  0  0  0  0
   -1.2218   -0.1892    2.2363 H   0  0  0  0  0  0  0  0  0  0  0  0
    1.0658   -0.8773    2.4310 H   0  0  0  0  0  0  0  0  0  0  0  0
    1.0816    0.8969    2.3858 H   0  0  0  0  0  0  0  0  0  0  0  0
    3.1599    0.4062    3.0226 H   0  0  0  0  0  0  0  0  0  0  0  0
    7.3190   -0.3508   -0.9949 H   0  0  0  0  0  0  0  0  0  0  0  0
    6.4015   -0.9583   -3.2253 H   0  0  0  0  0  0  0  0  0  0  0  0
    3.9475   -1.1775   -3.5289 H   0  0  0  0  0  0  0  0  0  0  0  0
    2.4174   -0.7776   -1.6398 H   0  0  0  0  0  0  0  0  0  0  0  0
  1  2  1  0
  2  3  1  0
  3  4  1  0
  4  5  1  0
  5  6  1  0
  6  7  2  0
  6  8  1  0
  8  9  1  0
  9 10  1  0
 10 11  1  0
 11 12  2  0
 12 13  1  0
 13 14  1  0
 14 15  1  0
 13 16  2  0
 16 17  1  0
 17 18  1  0
 16 19  1  0
 19 20  2  0
 20 21  1  0
 21 22  1  0
 22 23  1  0
 23 24  1  0
 24 25  2  0
 25 26  1  0
 26 27  2  0
 26 28  1  0
 28 29  1  0
 29 30  2  0
 30 31  1  0
 31 32  2  0
 32 33  1  0
 33 34  2  0
 21  8  1  0
 20 11  1  0
 34 24  1  0
 34 29  1  0
  1 35  1  0
  1 36  1  0
  1 37  1  0
  3 38  1  0
  3 39  1  0
  4 40  1  0
  4 41  1  0
  5 42  1  0
  9 43  1  0
  9 44  1  0
 10 45  1  0
 10 46  1  0
 12 47  1  0
 15 48  1  0
 15 49  1  0
 15 50  1  0
 18 51  1  0
 18 52  1  0
 18 53  1  0
 19 54  1  0
 21 55  1  0
 22 56  1  0
 22 57  1  0
 25 58  1  0
 30 59  1  0
 31 60  1  0
 32 61  1  0
 33 62  1  0
M  END
>  <Unnamed: 0>  (244) 
1440

>  <ID>  (244) 
TRAIN_1440

>  <Canonical_Smiles>  (244) 
COCCNC(=S)N1CCc2cc(OC)c(OC)cc2C1COC3=CC(=O)Oc4ccccc34

>  <Inhibition>  (244) 
48.4

>  <TDC_conf_true_inhibitor>  (244) 
1

>  <TDC_conf_non_inhibitor>  (244) 
0

>  <split>  (244) 
1

$$$$
244
     RDKit          3D

 30 33  0  0  0  0  0  0  0  0999 V2000
    6.2655    0.0835   -0.8967 O   0  0  0  0  0  0  0  0  0  0  0  0
    5.0081   -0.2072   -0.4816 C   0  0  0  0  0  0  0  0  0  0  0  0
    4.7955   -1.1922    0.4541 C   0  0  0  0  0  0  0  0  0  0  0  0
    3.4814   -1.4342    0.8309 C   0  0  0  0  0  0  0  0  0  0  0  0
    2.4438   -0.6835    0.2573 C   0  0  0  0  0  0  0  0  0  0  0  0
    1.0941   -0.8914    0.6066 C   0  0  0  0  0  0  0  0  0  0  0  0
    0.0555   -0.1397    0.0322 C   0  0  0  0  0  0  0  0  0  0  0  0
   -1.2625   -0.4093    0.4349 N   0  0  0  0  0  0  0  0  0  0  0  0
   -2.4647    0.1573    0.0508 C   0  0  0  0  0  0  0  0  0  0  0  0
   -2.5727    1.1256   -0.8321 N   0  0  0  0  0  0  0  0  0  0  0  0
   -3.8169    1.6345   -1.1579 C   0  0  0  0  0  0  0  0  0  0  0  0
   -4.9669    1.1995   -0.6218 C   0  0  0  0  0  0  0  0  0  0  0  0
   -4.8988    0.1858    0.3077 N   0  0  0  0  0  0  0  0  0  0  0  0
   -5.8450   -0.4630    1.0178 N   0  0  0  0  0  0  0  0  0  0  0  0
   -5.1936   -1.3516    1.7637 N   0  0  0  0  0  0  0  0  0  0  0  0
   -3.8354   -1.2894    1.5482 N   0  0  0  0  0  0  0  0  0  0  0  0
   -3.6837   -0.3412    0.6536 C   0  0  0  0  0  0  0  0  0  0  0  0
    0.4154    0.8279   -0.9045 C   0  0  0  0  0  0  0  0  0  0  0  0
    1.7583    1.0378   -1.2548 C   0  0  0  0  0  0  0  0  0  0  0  0
    2.7865    0.3002   -0.6923 C   0  0  0  0  0  0  0  0  0  0  0  0
    4.0574    0.5402   -1.0622 N   0  0  0  0  0  0  0  0  0  0  0  0
    6.0687    0.7953   -1.5321 H   0  0  0  0  0  0  0  0  0  0  0  0
    5.6228   -1.7504    0.8741 H   0  0  0  0  0  0  0  0  0  0  0  0
    3.2721   -2.2049    1.5679 H   0  0  0  0  0  0  0  0  0  0  0  0
    0.8576   -1.6576    1.3427 H   0  0  0  0  0  0  0  0  0  0  0  0
   -1.3497   -1.1468    1.1271 H   0  0  0  0  0  0  0  0  0  0  0  0
   -3.8206    2.4334   -1.8963 H   0  0  0  0  0  0  0  0  0  0  0  0
   -5.9442    1.5890   -0.8684 H   0  0  0  0  0  0  0  0  0  0  0  0
   -0.3275    1.4500   -1.3934 H   0  0  0  0  0  0  0  0  0  0  0  0
    1.9994    1.8023   -1.9899 H   0  0  0  0  0  0  0  0  0  0  0  0
  1  2  1  0
  2  3  2  0
  3  4  1  0
  4  5  2  0
  5  6  1  0
  6  7  2  0
  7  8  1  0
  8  9  1  0
  9 10  2  0
 10 11  1  0
 11 12  2  0
 12 13  1  0
 13 14  1  0
 14 15  2  0
 15 16  1  0
 16 17  2  0
  7 18  1  0
 18 19  2  0
 19 20  1  0
 20 21  2  0
 21  2  1  0
 20  5  1  0
 17  9  1  0
 17 13  1  0
  1 22  1  0
  3 23  1  0
  4 24  1  0
  6 25  1  0
  8 26  1  0
 11 27  1  0
 12 28  1  0
 18 29  1  0
 19 30  1  0
M  END
>  <Unnamed: 0>  (245) 
1446

>  <ID>  (245) 
TRAIN_1446

>  <Canonical_Smiles>  (245) 
Oc1ccc2cc(Nc3nccn4nnnc34)ccc2n1

>  <Inhibition>  (245) 
45.522098

>  <TDC_conf_true_inhibitor>  (245) 
0

>  <TDC_conf_non_inhibitor>  (245) 
1

>  <split>  (245) 
1

$$$$
245
     RDKit          3D

 36 39  0  0  0  0  0  0  0  0999 V2000
    1.3781   -1.3529   -1.7264 O   0  0  0  0  0  0  0  0  0  0  0  0
    0.9721   -0.5610   -0.8831 C   0  0  0  0  0  0  0  0  0  0  0  0
    1.7812    0.2381   -0.1214 O   0  0  0  0  0  0  0  0  0  0  0  0
    3.2129    0.0996   -0.2848 C   0  0  0  0  0  0  0  0  0  0  0  0
    3.7938    0.7766   -1.5061 C   0  0  0  0  0  0  0  0  0  0  0  0
    3.9601    1.4117   -0.1619 C   0  0  0  0  0  0  0  0  0  0  0  0
    3.7780   -1.2202    0.2607 C   0  0  0  0  0  0  0  0  0  0  0  0
    3.3902   -1.7525    1.6230 C   0  0  0  0  0  0  0  0  0  0  0  0
    4.7977   -1.3077    1.3727 C   0  0  0  0  0  0  0  0  0  0  0  0
   -0.4160   -0.3091   -0.5360 C   0  0  0  0  0  0  0  0  0  0  0  0
   -0.9504    0.5688    0.3912 C   0  0  0  0  0  0  0  0  0  0  0  0
   -2.3826    0.5270    0.4477 C   0  0  0  0  0  0  0  0  0  0  0  0
   -3.2191    1.3828    1.3533 C   0  0  0  0  0  0  0  0  0  0  0  0
   -4.9568    0.9337    1.3626 S   0  0  0  0  0  6  0  0  0  0  0  0
   -5.7308    2.1439    1.5731 O   0  0  0  0  0  0  0  0  0  0  0  0
   -5.1416   -0.2118    2.2344 O   0  0  0  0  0  0  0  0  0  0  0  0
   -5.2446    0.4003   -0.3131 C   0  0  0  0  0  0  0  0  0  0  0  0
   -4.3239   -0.7506   -0.6811 C   0  0  0  0  0  0  0  0  0  0  0  0
   -2.8838   -0.3923   -0.4560 C   0  0  0  0  0  0  0  0  0  0  0  0
   -1.6538   -1.1797   -1.3358 S   0  0  0  0  0  0  0  0  0  0  0  0
    4.6631    0.3229   -1.9681 H   0  0  0  0  0  0  0  0  0  0  0  0
    3.1121    1.2372   -2.2109 H   0  0  0  0  0  0  0  0  0  0  0  0
    4.9531    1.4107    0.2701 H   0  0  0  0  0  0  0  0  0  0  0  0
    3.3872    2.3056    0.0541 H   0  0  0  0  0  0  0  0  0  0  0  0
    3.8705   -1.9865   -0.5119 H   0  0  0  0  0  0  0  0  0  0  0  0
    2.7697   -1.1330    2.2601 H   0  0  0  0  0  0  0  0  0  0  0  0
    3.1968   -2.8154    1.7114 H   0  0  0  0  0  0  0  0  0  0  0  0
    5.5661   -2.0683    1.2921 H   0  0  0  0  0  0  0  0  0  0  0  0
    5.1276   -0.3982    1.8597 H   0  0  0  0  0  0  0  0  0  0  0  0
   -0.3380    1.2174    1.0092 H   0  0  0  0  0  0  0  0  0  0  0  0
   -2.8661    1.3228    2.3875 H   0  0  0  0  0  0  0  0  0  0  0  0
   -3.1626    2.4244    1.0195 H   0  0  0  0  0  0  0  0  0  0  0  0
   -6.2941    0.0995   -0.3857 H   0  0  0  0  0  0  0  0  0  0  0  0
   -5.0861    1.2689   -0.9615 H   0  0  0  0  0  0  0  0  0  0  0  0
   -4.4966   -1.0188   -1.7301 H   0  0  0  0  0  0  0  0  0  0  0  0
   -4.5637   -1.6339   -0.0764 H   0  0  0  0  0  0  0  0  0  0  0  0
  1  2  2  0
  2  3  1  0
  3  4  1  0
  4  5  1  0
  5  6  1  0
  4  7  1  0
  7  8  1  0
  8  9  1  0
  2 10  1  0
 10 11  2  0
 11 12  1  0
 12 13  1  0
 13 14  1  0
 14 15  2  0
 14 16  2  0
 14 17  1  0
 17 18  1  0
 18 19  1  0
 19 20  1  0
  6  4  1  0
  9  7  1  0
 20 10  1  0
 19 12  2  0
  5 21  1  0
  5 22  1  0
  6 23  1  0
  6 24  1  0
  7 25  1  0
  8 26  1  0
  8 27  1  0
  9 28  1  0
  9 29  1  0
 11 30  1  0
 13 31  1  0
 13 32  1  0
 17 33  1  0
 17 34  1  0
 18 35  1  0
 18 36  1  0
M  END
>  <Unnamed: 0>  (246) 
1451

>  <ID>  (246) 
TRAIN_1451

>  <Canonical_Smiles>  (246) 
O=C(OC1(CC1)C2CC2)c3cc4CS(=O)(=O)CCc4s3

>  <Inhibition>  (246) 
43.094381

>  <TDC_conf_true_inhibitor>  (246) 
0

>  <TDC_conf_non_inhibitor>  (246) 
1

>  <split>  (246) 
1

$$$$
246
     RDKit          3D

 51 54  0  0  0  0  0  0  0  0999 V2000
   -1.1562   -1.0719   -2.2899 C   0  0  0  0  0  0  0  0  0  0  0  0
   -2.5501   -1.3231   -1.7479 C   0  0  0  0  0  0  0  0  0  0  0  0
   -2.7806   -0.5239   -0.5787 O   0  0  0  0  0  0  0  0  0  0  0  0
   -2.3898   -1.0667    0.6050 C   0  0  0  0  0  0  0  0  0  0  0  0
   -1.8724   -2.1707    0.7350 O   0  0  0  0  0  0  0  0  0  0  0  0
   -2.6367   -0.1322    1.7738 C   0  0  0  0  0  0  0  0  0  0  0  0
   -3.9858    0.6052    1.7210 C   0  0  0  0  0  0  0  0  0  0  0  0
   -3.8305    2.1262    1.7011 C   0  0  0  0  0  0  0  0  0  0  0  0
   -2.7638    2.5628    0.7013 C   0  0  0  0  0  0  0  0  0  0  0  0
   -1.4892    1.9126    0.9821 N   0  0  0  0  0  0  0  0  0  0  0  0
   -1.4370    0.8007    1.9276 C   0  0  0  0  0  0  0  0  0  0  0  0
   -0.4721    2.0908    0.0602 C   0  0  0  0  0  0  0  0  0  0  0  0
    0.5935    1.2577    0.1102 N   0  0  0  0  0  0  0  0  0  0  0  0
    1.6525    1.3847   -0.7424 C   0  0  0  0  0  0  0  0  0  0  0  0
    2.7729    0.5411   -0.6963 N   0  0  0  0  0  0  0  0  0  0  0  0
    2.9948   -0.6986   -0.0762 C   0  0  0  0  0  0  0  0  0  0  0  0
    4.3044   -1.2009   -0.0307 C   0  0  0  0  0  0  0  0  0  0  0  0
    4.5986   -2.4164    0.5974 C   0  0  0  0  0  0  0  0  0  0  0  0
    3.5869   -3.1545    1.2163 C   0  0  0  0  0  0  0  0  0  0  0  0
    3.8923   -4.4734    1.8596 C   0  0  0  0  0  0  0  0  0  0  0  0
    2.2800   -2.6638    1.1780 C   0  0  0  0  0  0  0  0  0  0  0  0
    1.9954   -1.4442    0.5517 C   0  0  0  0  0  0  0  0  0  0  0  0
    1.5864    2.4316   -1.6661 C   0  0  0  0  0  0  0  0  0  0  0  0
    2.4287    2.8804   -2.6520 N   0  0  0  0  0  0  0  0  0  0  0  0
    1.8440    3.9179   -3.2461 N   0  0  0  0  0  0  0  0  0  0  0  0
    0.6578    4.1153   -2.6355 N   0  0  0  0  0  0  0  0  0  0  0  0
    0.4528    3.2102   -1.6407 C   0  0  0  0  0  0  0  0  0  0  0  0
   -0.6008    3.0977   -0.8270 N   0  0  0  0  0  0  0  0  0  0  0  0
   -0.9949   -1.6232   -3.2193 H   0  0  0  0  0  0  0  0  0  0  0  0
   -0.3949   -1.3799   -1.5675 H   0  0  0  0  0  0  0  0  0  0  0  0
   -1.0042   -0.0047   -2.4815 H   0  0  0  0  0  0  0  0  0  0  0  0
   -2.7165   -2.3871   -1.5439 H   0  0  0  0  0  0  0  0  0  0  0  0
   -3.2933   -1.0185   -2.4921 H   0  0  0  0  0  0  0  0  0  0  0  0
   -2.6693   -0.7895    2.6542 H   0  0  0  0  0  0  0  0  0  0  0  0
   -4.5792    0.3342    2.6038 H   0  0  0  0  0  0  0  0  0  0  0  0
   -4.5853    0.2883    0.8602 H   0  0  0  0  0  0  0  0  0  0  0  0
   -4.7908    2.5929    1.4544 H   0  0  0  0  0  0  0  0  0  0  0  0
   -3.5600    2.4773    2.7053 H   0  0  0  0  0  0  0  0  0  0  0  0
   -2.6535    3.6528    0.7579 H   0  0  0  0  0  0  0  0  0  0  0  0
   -3.1080    2.3114   -0.3106 H   0  0  0  0  0  0  0  0  0  0  0  0
   -1.4532    1.2286    2.9385 H   0  0  0  0  0  0  0  0  0  0  0  0
   -0.5073    0.2240    1.8811 H   0  0  0  0  0  0  0  0  0  0  0  0
    3.4953    0.8179   -1.3520 H   0  0  0  0  0  0  0  0  0  0  0  0
    5.1193   -0.6442   -0.4871 H   0  0  0  0  0  0  0  0  0  0  0  0
    5.6242   -2.7780    0.6025 H   0  0  0  0  0  0  0  0  0  0  0  0
    4.8552   -4.4363    2.3797 H   0  0  0  0  0  0  0  0  0  0  0  0
    3.9276   -5.2608    1.1010 H   0  0  0  0  0  0  0  0  0  0  0  0
    3.1319   -4.7354    2.6026 H   0  0  0  0  0  0  0  0  0  0  0  0
    1.4636   -3.2219    1.6322 H   0  0  0  0  0  0  0  0  0  0  0  0
    0.9639   -1.1090    0.5438 H   0  0  0  0  0  0  0  0  0  0  0  0
    0.0534    4.8663   -2.9412 H   0  0  0  0  0  0  0  0  0  0  0  0
  1  2  1  0
  2  3  1  0
  3  4  1  0
  4  5  2  0
  4  6  1  0
  6  7  1  0
  7  8  1  0
  8  9  1  0
  9 10  1  0
 10 11  1  0
 10 12  1  0
 12 13  2  0
 13 14  1  0
 14 15  1  0
 15 16  1  0
 16 17  2  0
 17 18  1  0
 18 19  2  0
 19 20  1  0
 19 21  1  0
 21 22  2  0
 14 23  2  0
 23 24  1  0
 24 25  2  0
 25 26  1  0
 26 27  1  0
 27 28  2  0
 11  6  1  0
 28 12  1  0
 22 16  1  0
 27 23  1  0
  1 29  1  0
  1 30  1  0
  1 31  1  0
  2 32  1  0
  2 33  1  0
  6 34  1  0
  7 35  1  0
  7 36  1  0
  8 37  1  0
  8 38  1  0
  9 39  1  0
  9 40  1  0
 11 41  1  0
 11 42  1  0
 15 43  1  0
 17 44  1  0
 18 45  1  0
 20 46  1  0
 20 47  1  0
 20 48  1  0
 21 49  1  0
 22 50  1  0
 26 51  1  0
M  END
>  <Unnamed: 0>  (247) 
1453

>  <ID>  (247) 
TRAIN_1453

>  <Canonical_Smiles>  (247) 
CCOC(=O)C1CCCN(C1)c2nc(Nc3ccc(C)cc3)c4nn[nH]c4n2

>  <Inhibition>  (247) 
83.636878

>  <TDC_conf_true_inhibitor>  (247) 
1

>  <TDC_conf_non_inhibitor>  (247) 
0

>  <split>  (247) 
1

$$$$
247
     RDKit          3D

 34 36  0  0  0  0  0  0  0  0999 V2000
   -4.6024    1.8734   -0.2484 C   0  0  0  0  0  0  0  0  0  0  0  0
   -3.6637    0.8143   -0.0212 N   0  0  0  0  0  0  0  0  0  0  0  0
   -3.9683   -0.4465    0.5385 C   0  0  0  0  0  0  0  0  0  0  0  0
   -5.0622   -0.8364    0.9149 O   0  0  0  0  0  0  0  0  0  0  0  0
   -2.7518   -1.1620    0.5744 N   0  0  0  0  0  0  0  0  0  0  0  0
   -2.5812   -2.4964    1.0707 C   0  0  0  0  0  0  0  0  0  0  0  0
   -1.7325   -0.3577    0.0505 C   0  0  0  0  0  0  0  0  0  0  0  0
   -0.3893   -0.6195   -0.1171 C   0  0  0  0  0  0  0  0  0  0  0  0
    0.4103    0.3947   -0.6773 C   0  0  0  0  0  0  0  0  0  0  0  0
    1.8909    0.1574   -0.8715 C   0  0  0  0  0  0  0  0  0  0  0  0
    2.5728    0.0826    0.4205 N   0  0  0  0  0  0  0  0  0  0  0  0
    3.9313   -0.1712    0.2721 N   0  0  0  0  0  0  0  0  0  0  0  0
    4.9125    0.7458    0.1036 C   0  0  0  0  0  0  0  0  0  0  0  0
    6.1118    0.2545    0.0572 N   0  0  0  0  0  0  0  0  0  0  0  0
    5.9240   -1.0995    0.2191 N   0  0  0  0  0  0  0  0  0  0  0  0
    4.5668   -1.3907    0.3763 C   0  0  0  0  0  0  0  0  0  0  0  0
    3.9510   -2.9078    0.6267 S   0  0  0  0  0  0  0  0  0  0  0  0
   -0.1727    1.6343   -1.0442 C   0  0  0  0  0  0  0  0  0  0  0  0
   -1.5403    1.8779   -0.8663 C   0  0  0  0  0  0  0  0  0  0  0  0
   -2.2961    0.8647   -0.3170 C   0  0  0  0  0  0  0  0  0  0  0  0
   -4.2976    2.7555    0.3222 H   0  0  0  0  0  0  0  0  0  0  0  0
   -5.6034    1.5711    0.0713 H   0  0  0  0  0  0  0  0  0  0  0  0
   -4.6264    2.1129   -1.3154 H   0  0  0  0  0  0  0  0  0  0  0  0
   -2.1991   -3.1348    0.2689 H   0  0  0  0  0  0  0  0  0  0  0  0
   -3.5364   -2.8974    1.4207 H   0  0  0  0  0  0  0  0  0  0  0  0
   -1.8730   -2.4847    1.9043 H   0  0  0  0  0  0  0  0  0  0  0  0
    0.0427   -1.5706    0.1771 H   0  0  0  0  0  0  0  0  0  0  0  0
    2.0194   -0.7745   -1.4366 H   0  0  0  0  0  0  0  0  0  0  0  0
    2.3203    0.9613   -1.4824 H   0  0  0  0  0  0  0  0  0  0  0  0
    2.4362    0.9496    0.9393 H   0  0  0  0  0  0  0  0  0  0  0  0
    4.6428    1.8065    0.0203 H   0  0  0  0  0  0  0  0  0  0  0  0
    6.6968   -1.7536    0.2553 H   0  0  0  0  0  0  0  0  0  0  0  0
    0.4448    2.4198   -1.4769 H   0  0  0  0  0  0  0  0  0  0  0  0
   -1.9779    2.8269   -1.1517 H   0  0  0  0  0  0  0  0  0  0  0  0
  1  2  1  0
  2  3  1  0
  3  4  2  0
  3  5  1  0
  5  6  1  0
  5  7  1  0
  7  8  2  0
  8  9  1  0
  9 10  1  0
 10 11  1  0
 11 12  1  0
 12 13  1  0
 13 14  2  0
 14 15  1  0
 15 16  1  0
 16 17  2  0
  9 18  2  0
 18 19  1  0
 19 20  2  0
 20  2  1  0
 20  7  1  0
 16 12  1  0
  1 21  1  0
  1 22  1  0
  1 23  1  0
  6 24  1  0
  6 25  1  0
  6 26  1  0
  8 27  1  0
 10 28  1  0
 10 29  1  0
 11 30  1  0
 13 31  1  0
 15 32  1  0
 18 33  1  0
 19 34  1  0
M  END
>  <Unnamed: 0>  (248) 
1454

>  <ID>  (248) 
TRAIN_1454

>  <Canonical_Smiles>  (248) 
CN1C(=O)N(C)c2cc(CNN3C=NNC3=S)ccc12

>  <Inhibition>  (248) 
41.803817

>  <TDC_conf_true_inhibitor>  (248) 
0

>  <TDC_conf_non_inhibitor>  (248) 
1

>  <split>  (248) 
1

$$$$
248
     RDKit          3D

 46 49  0  0  0  0  0  0  0  0999 V2000
   -6.9558   -0.7839    1.2007 C   0  0  0  0  0  0  0  0  0  0  0  0
   -5.6703   -0.3892    0.6599 N   0  0  0  0  0  0  0  0  0  0  0  0
   -5.5924    0.8953    0.0783 C   0  0  0  0  0  0  0  0  0  0  0  0
   -6.5758    1.6412    0.0476 O   0  0  0  0  0  0  0  0  0  0  0  0
   -4.3582    1.2814   -0.4514 N   0  0  0  0  0  0  0  0  0  0  0  0
   -4.1958    2.5809   -1.0775 C   0  0  0  0  0  0  0  0  0  0  0  0
   -3.2845    0.4314   -0.3391 C   0  0  0  0  0  0  0  0  0  0  0  0
   -2.0184    0.6535   -0.7839 N   0  0  0  0  0  0  0  0  0  0  0  0
   -1.3325   -0.4198   -0.4355 C   0  0  0  0  0  0  0  0  0  0  0  0
   -2.1519   -1.3246    0.2061 N   0  0  0  0  0  0  0  0  0  0  0  0
   -3.3960   -0.7746    0.2716 C   0  0  0  0  0  0  0  0  0  0  0  0
   -4.5981   -1.2693    0.8303 C   0  0  0  0  0  0  0  0  0  0  0  0
   -4.6598   -2.3520    1.4034 O   0  0  0  0  0  0  0  0  0  0  0  0
   -0.0209   -0.6861   -0.6634 N   0  0  0  0  0  0  0  0  0  0  0  0
    0.7258   -1.5997    0.2232 C   0  0  0  0  0  0  0  0  0  0  0  0
    2.2530   -1.5566   -0.0159 C   0  0  0  0  0  0  0  0  0  0  0  0
    2.7730   -0.1855    0.1205 N   0  0  0  0  0  0  0  0  0  0  0  0
    1.8916    0.9003   -0.3626 C   0  0  0  0  0  0  0  0  0  0  0  0
    0.7888    0.3702   -1.3050 C   0  0  0  0  0  0  0  0  0  0  0  0
    4.1073    0.0654    0.4047 C   0  0  0  0  0  0  0  0  0  0  0  0
    4.5371    1.3348    0.8304 C   0  0  0  0  0  0  0  0  0  0  0  0
    5.8780    1.6048    1.1348 C   0  0  0  0  0  0  0  0  0  0  0  0
    6.8341    0.6024    1.0229 C   0  0  0  0  0  0  0  0  0  0  0  0
    6.4324   -0.6590    0.6094 C   0  0  0  0  0  0  0  0  0  0  0  0
    7.3285   -1.6812    0.4810 O   0  0  0  0  0  0  0  0  0  0  0  0
    5.0957   -0.9268    0.3080 C   0  0  0  0  0  0  0  0  0  0  0  0
   -7.7602   -0.4862    0.5205 H   0  0  0  0  0  0  0  0  0  0  0  0
   -7.0991   -0.2722    2.1581 H   0  0  0  0  0  0  0  0  0  0  0  0
   -7.0159   -1.8638    1.3622 H   0  0  0  0  0  0  0  0  0  0  0  0
   -3.7849    2.4482   -2.0836 H   0  0  0  0  0  0  0  0  0  0  0  0
   -3.5053    3.1804   -0.4751 H   0  0  0  0  0  0  0  0  0  0  0  0
   -5.1457    3.1158   -1.1577 H   0  0  0  0  0  0  0  0  0  0  0  0
   -1.8840   -2.2343    0.5485 H   0  0  0  0  0  0  0  0  0  0  0  0
    0.3759   -2.6281    0.0719 H   0  0  0  0  0  0  0  0  0  0  0  0
    0.5327   -1.3269    1.2695 H   0  0  0  0  0  0  0  0  0  0  0  0
    2.4858   -1.9394   -1.0173 H   0  0  0  0  0  0  0  0  0  0  0  0
    2.7147   -2.2247    0.7211 H   0  0  0  0  0  0  0  0  0  0  0  0
    1.4321    1.3925    0.5029 H   0  0  0  0  0  0  0  0  0  0  0  0
    2.4653    1.6506   -0.9204 H   0  0  0  0  0  0  0  0  0  0  0  0
    1.2555   -0.0611   -2.1999 H   0  0  0  0  0  0  0  0  0  0  0  0
    0.1827    1.2141   -1.6550 H   0  0  0  0  0  0  0  0  0  0  0  0
    3.8198    2.1417    0.9598 H   0  0  0  0  0  0  0  0  0  0  0  0
    6.1654    2.5991    1.4663 H   0  0  0  0  0  0  0  0  0  0  0  0
    7.8695    0.8199    1.2617 H   0  0  0  0  0  0  0  0  0  0  0  0
    8.2099   -1.3493    0.7178 H   0  0  0  0  0  0  0  0  0  0  0  0
    4.8509   -1.9295   -0.0271 H   0  0  0  0  0  0  0  0  0  0  0  0
  1  2  1  0
  2  3  1  0
  3  4  2  0
  3  5  1  0
  5  6  1  0
  5  7  1  0
  7  8  1  0
  8  9  2  0
  9 10  1  0
 10 11  1  0
 11 12  1  0
 12 13  2  0
  9 14  1  0
 14 15  1  0
 15 16  1  0
 16 17  1  0
 17 18  1  0
 18 19  1  0
 17 20  1  0
 20 21  2  0
 21 22  1  0
 22 23  2  0
 23 24  1  0
 24 25  1  0
 24 26  2  0
 12  2  1  0
 11  7  2  0
 19 14  1  0
 26 20  1  0
  1 27  1  0
  1 28  1  0
  1 29  1  0
  6 30  1  0
  6 31  1  0
  6 32  1  0
 10 33  1  0
 15 34  1  0
 15 35  1  0
 16 36  1  0
 16 37  1  0
 18 38  1  0
 18 39  1  0
 19 40  1  0
 19 41  1  0
 21 42  1  0
 22 43  1  0
 23 44  1  0
 25 45  1  0
 26 46  1  0
M  END
>  <Unnamed: 0>  (249) 
1458

>  <ID>  (249) 
TRAIN_1458

>  <Canonical_Smiles>  (249) 
CN1C(=O)N(C)c2nc([nH]c2C1=O)N3CCN(CC3)c4cccc(O)c4

>  <Inhibition>  (249) 
48.466616

>  <TDC_conf_true_inhibitor>  (249) 
0

>  <TDC_conf_non_inhibitor>  (249) 
1

>  <split>  (249) 
1

$$$$
249
     RDKit          3D

 26 29  0  0  0  0  0  0  0  0999 V2000
   -0.8722   -4.1176    0.6883 Cl  0  0  0  0  0  0  0  0  0  0  0  0
   -1.2840   -2.4814    0.3992 C   0  0  0  0  0  0  0  0  0  0  0  0
   -2.5424   -2.1779    0.3117 N   0  0  0  0  0  0  0  0  0  0  0  0
   -2.8905   -0.8271    0.0728 C   0  0  0  0  0  0  0  0  0  0  0  0
   -4.2356   -0.4806   -0.0245 C   0  0  0  0  0  0  0  0  0  0  0  0
   -4.5976    0.8461   -0.2597 C   0  0  0  0  0  0  0  0  0  0  0  0
   -3.5953    1.7964   -0.3919 C   0  0  0  0  0  0  0  0  0  0  0  0
   -2.2790    1.5140   -0.3063 N   0  0  0  0  0  0  0  0  0  0  0  0
   -1.9596    0.2126   -0.0766 C   0  0  0  0  0  0  0  0  0  0  0  0
   -0.6099   -0.1954    0.0313 N   0  0  0  0  0  0  0  0  0  0  0  0
    0.4589    0.6260   -0.0772 N   0  0  0  0  0  0  0  0  0  0  0  0
    1.5083   -0.1866    0.0905 C   0  0  0  0  0  0  0  0  0  0  0  0
    1.1192   -1.5265    0.3064 C   0  0  0  0  0  0  0  0  0  0  0  0
   -0.2565   -1.4999    0.2624 C   0  0  0  0  0  0  0  0  0  0  0  0
    2.9827    0.3182    0.0473 C   0  0  0  0  0  0  0  0  0  0  0  0
    4.0807   -0.4795    0.2140 O   0  0  0  0  0  0  0  0  0  0  0  0
    5.1746    0.3183    0.1102 C   0  0  0  0  0  0  0  0  0  0  0  0
    4.8019    1.6210   -0.1212 C   0  0  0  0  0  0  0  0  0  0  0  0
    3.3869    1.6220   -0.1620 C   0  0  0  0  0  0  0  0  0  0  0  0
   -5.0009   -1.2447    0.0830 H   0  0  0  0  0  0  0  0  0  0  0  0
   -5.6414    1.1315   -0.3380 H   0  0  0  0  0  0  0  0  0  0  0  0
   -3.8342    2.8407   -0.5757 H   0  0  0  0  0  0  0  0  0  0  0  0
    1.7639   -2.3795    0.4694 H   0  0  0  0  0  0  0  0  0  0  0  0
    6.1280   -0.1793    0.2219 H   0  0  0  0  0  0  0  0  0  0  0  0
    5.4661    2.4646   -0.2451 H   0  0  0  0  0  0  0  0  0  0  0  0
    2.7278    2.4645   -0.3236 H   0  0  0  0  0  0  0  0  0  0  0  0
  1  2  1  0
  2  3  2  0
  3  4  1  0
  4  5  2  0
  5  6  1  0
  6  7  2  0
  7  8  1  0
  8  9  2  0
  9 10  1  0
 10 11  1  0
 11 12  2  0
 12 13  1  0
 13 14  2  0
 12 15  1  0
 15 16  1  0
 16 17  1  0
 17 18  2  0
 18 19  1  0
 14  2  1  0
  9  4  1  0
 14 10  1  0
 19 15  2  0
  5 20  1  0
  6 21  1  0
  7 22  1  0
 13 23  1  0
 17 24  1  0
 18 25  1  0
 19 26  1  0
M  END
>  <Unnamed: 0>  (250) 
1463

>  <ID>  (250) 
TRAIN_1463

>  <Canonical_Smiles>  (250) 
Clc1nc2cccnc2n3nc(cc13)c4occc4

>  <Inhibition>  (250) 
29.693036

>  <TDC_conf_true_inhibitor>  (250) 
0

>  <TDC_conf_non_inhibitor>  (250) 
1

>  <split>  (250) 
1

$$$$
250
     RDKit          3D

 46 50  0  0  0  0  0  0  0  0999 V2000
    0.8141   -0.9470   -1.8748 O   0  0  0  0  0  0  0  0  0  0  0  0
    0.9343   -1.3591   -0.7250 C   0  0  0  0  0  0  0  0  0  0  0  0
    2.2249   -2.0135   -0.2396 C   0  0  0  0  0  0  0  0  0  0  0  0
    2.9311   -1.1067    0.6274 N   0  0  0  0  0  0  0  0  0  0  0  0
    2.6801   -0.9340    1.9697 C   0  0  0  0  0  0  0  0  0  0  0  0
    1.8301   -1.5424    2.6092 O   0  0  0  0  0  0  0  0  0  0  0  0
    3.4940    0.0651    2.5148 O   0  0  0  0  0  0  0  0  0  0  0  0
    4.1873    0.5181    1.4029 C   0  0  0  0  0  0  0  0  0  0  0  0
    5.1038    1.5474    1.3976 C   0  0  0  0  0  0  0  0  0  0  0  0
    5.6855    1.8821    0.1710 C   0  0  0  0  0  0  0  0  0  0  0  0
    5.3360    1.1895   -1.0060 C   0  0  0  0  0  0  0  0  0  0  0  0
    4.4037    0.1476   -0.9758 C   0  0  0  0  0  0  0  0  0  0  0  0
    3.8548   -0.1639    0.2485 C   0  0  0  0  0  0  0  0  0  0  0  0
   -0.0434   -1.2724    0.2485 N   0  0  0  0  0  0  0  0  0  0  0  0
   -1.3260   -0.5823    0.0898 C   0  0  0  0  0  0  0  0  0  0  0  0
   -2.1742   -1.1889   -1.0561 C   0  0  0  0  0  0  0  0  0  0  0  0
   -3.5318   -0.4715   -1.1629 C   0  0  0  0  0  0  0  0  0  0  0  0
   -3.2935    1.0246   -1.4302 C   0  0  0  0  0  0  0  0  0  0  0  0
   -2.4829    1.6459   -0.2799 C   0  0  0  0  0  0  0  0  0  0  0  0
   -3.2555    1.4695    1.0371 C   0  0  0  0  0  0  0  0  0  0  0  0
   -3.4892   -0.0242    1.3129 C   0  0  0  0  0  0  0  0  0  0  0  0
   -4.2986   -0.6348    0.1586 C   0  0  0  0  0  0  0  0  0  0  0  0
   -2.1312   -0.7376    1.4084 C   0  0  0  0  0  0  0  0  0  0  0  0
   -1.1248    0.9304   -0.1725 C   0  0  0  0  0  0  0  0  0  0  0  0
    1.9715   -2.9247    0.3141 H   0  0  0  0  0  0  0  0  0  0  0  0
    2.8457   -2.2980   -1.0946 H   0  0  0  0  0  0  0  0  0  0  0  0
    5.3587    2.0800    2.3067 H   0  0  0  0  0  0  0  0  0  0  0  0
    6.4117    2.6910    0.1210 H   0  0  0  0  0  0  0  0  0  0  0  0
    5.7950    1.4741   -1.9509 H   0  0  0  0  0  0  0  0  0  0  0  0
    4.1275   -0.3751   -1.8844 H   0  0  0  0  0  0  0  0  0  0  0  0
    0.2428   -1.4973    1.2008 H   0  0  0  0  0  0  0  0  0  0  0  0
   -1.6548   -1.1064   -2.0176 H   0  0  0  0  0  0  0  0  0  0  0  0
   -2.3304   -2.2617   -0.8827 H   0  0  0  0  0  0  0  0  0  0  0  0
   -4.1143   -0.9052   -1.9834 H   0  0  0  0  0  0  0  0  0  0  0  0
   -2.7585    1.1553   -2.3789 H   0  0  0  0  0  0  0  0  0  0  0  0
   -4.2545    1.5434   -1.5328 H   0  0  0  0  0  0  0  0  0  0  0  0
   -2.3234    2.7124   -0.4741 H   0  0  0  0  0  0  0  0  0  0  0  0
   -4.2167    1.9950    0.9810 H   0  0  0  0  0  0  0  0  0  0  0  0
   -2.6939    1.9205    1.8644 H   0  0  0  0  0  0  0  0  0  0  0  0
   -4.0378   -0.1450    2.2537 H   0  0  0  0  0  0  0  0  0  0  0  0
   -5.2776   -0.1452    0.0870 H   0  0  0  0  0  0  0  0  0  0  0  0
   -4.4876   -1.6976    0.3537 H   0  0  0  0  0  0  0  0  0  0  0  0
   -2.2856   -1.8015    1.6330 H   0  0  0  0  0  0  0  0  0  0  0  0
   -1.5584   -0.3274    2.2511 H   0  0  0  0  0  0  0  0  0  0  0  0
   -0.5584    1.0941   -1.0972 H   0  0  0  0  0  0  0  0  0  0  0  0
   -0.5296    1.3775    0.6347 H   0  0  0  0  0  0  0  0  0  0  0  0
  1  2  2  0
  2  3  1  0
  3  4  1  0
  4  5  1  0
  5  6  2  0
  5  7  1  0
  7  8  1  0
  8  9  2  0
  9 10  1  0
 10 11  2  0
 11 12  1  0
 12 13  2  0
  2 14  1  0
 14 15  1  0
 15 16  1  0
 16 17  1  0
 17 18  1  0
 18 19  1  0
 19 20  1  0
 20 21  1  0
 21 22  1  0
 21 23  1  0
 19 24  1  0
 13  4  1  0
 13  8  1  0
 23 15  1  0
 24 15  1  0
 22 17  1  0
  3 25  1  0
  3 26  1  0
  9 27  1  0
 10 28  1  0
 11 29  1  0
 12 30  1  0
 14 31  1  0
 16 32  1  0
 16 33  1  0
 17 34  1  0
 18 35  1  0
 18 36  1  0
 19 37  1  0
 20 38  1  0
 20 39  1  0
 21 40  1  0
 22 41  1  0
 22 42  1  0
 23 43  1  0
 23 44  1  0
 24 45  1  0
 24 46  1  0
M  END
>  <Unnamed: 0>  (251) 
1468

>  <ID>  (251) 
TRAIN_1468

>  <Canonical_Smiles>  (251) 
O=C(CN1C(=O)Oc2ccccc12)NC34CC5CC(CC(C5)C3)C4

>  <Inhibition>  (251) 
47.94598

>  <TDC_conf_true_inhibitor>  (251) 
0

>  <TDC_conf_non_inhibitor>  (251) 
1

>  <split>  (251) 
1

$$$$
251
     RDKit          3D

 40 43  0  0  0  0  0  0  0  0999 V2000
   -2.6798    2.7757   -0.9936 O   0  0  0  0  0  0  0  0  0  0  0  0
   -3.2794    1.7661   -0.6661 C   0  0  0  0  0  0  0  0  0  0  0  0
   -4.6748    1.6660   -0.5642 N   0  0  0  0  0  0  0  0  0  0  0  0
   -4.9889    0.3474   -0.2781 C   0  0  0  0  0  0  0  0  0  0  0  0
   -6.1713   -0.3091   -0.1434 C   0  0  0  0  0  0  0  0  0  0  0  0
   -6.1941   -1.6379    0.0958 N   0  0  0  0  0  0  0  0  0  0  0  0
   -4.9932   -2.2645    0.1806 C   0  0  0  0  0  0  0  0  0  0  0  0
   -3.7772   -1.7005    0.0580 N   0  0  0  0  0  0  0  0  0  0  0  0
   -3.8271   -0.3864   -0.1611 C   0  0  0  0  0  0  0  0  0  0  0  0
   -2.7508    0.5011   -0.3377 N   0  0  0  0  0  0  0  0  0  0  0  0
   -1.3806    0.0639   -0.5259 C   0  0  0  0  0  0  0  0  0  0  0  0
   -0.8739   -0.9308    0.5298 C   0  0  0  0  0  0  0  0  0  0  0  0
    0.5581   -0.5086    0.8480 C   0  0  0  0  0  0  0  0  0  0  0  0
    0.9140    0.4297   -0.2185 N   0  0  0  0  0  0  0  0  0  0  0  0
    2.0211    1.3207    0.1369 C   0  0  0  0  0  0  0  0  0  0  0  0
    3.3408    0.5872    0.2544 C   0  0  0  0  0  0  0  0  0  0  0  0
    4.0526    0.5808    1.4623 C   0  0  0  0  0  0  0  0  0  0  0  0
    5.2700   -0.0946    1.5646 C   0  0  0  0  0  0  0  0  0  0  0  0
    5.7898   -0.7709    0.4601 C   0  0  0  0  0  0  0  0  0  0  0  0
    5.0919   -0.7740   -0.7515 C   0  0  0  0  0  0  0  0  0  0  0  0
    3.8731   -0.0950   -0.8522 C   0  0  0  0  0  0  0  0  0  0  0  0
    5.6238   -1.4707   -1.8857 C   0  0  0  0  0  0  0  0  0  0  0  0
    6.0625   -2.0350   -2.8006 N   0  0  0  0  0  0  0  0  0  0  0  0
   -0.3242    1.1759   -0.4764 C   0  0  0  0  0  0  0  0  0  0  0  0
   -5.3056    2.4244   -0.7693 H   0  0  0  0  0  0  0  0  0  0  0  0
   -7.1329    0.1815   -0.2257 H   0  0  0  0  0  0  0  0  0  0  0  0
   -5.0191   -3.3340    0.3661 H   0  0  0  0  0  0  0  0  0  0  0  0
   -1.3367   -0.4129   -1.5155 H   0  0  0  0  0  0  0  0  0  0  0  0
   -1.4741   -0.9139    1.4466 H   0  0  0  0  0  0  0  0  0  0  0  0
   -0.9002   -1.9502    0.1277 H   0  0  0  0  0  0  0  0  0  0  0  0
    0.5799   -0.0291    1.8352 H   0  0  0  0  0  0  0  0  0  0  0  0
    1.2277   -1.3744    0.8726 H   0  0  0  0  0  0  0  0  0  0  0  0
    1.8054    1.8687    1.0636 H   0  0  0  0  0  0  0  0  0  0  0  0
    2.1479    2.0810   -0.6454 H   0  0  0  0  0  0  0  0  0  0  0  0
    3.6605    1.1010    2.3340 H   0  0  0  0  0  0  0  0  0  0  0  0
    5.8135   -0.0941    2.5066 H   0  0  0  0  0  0  0  0  0  0  0  0
    6.7391   -1.2948    0.5517 H   0  0  0  0  0  0  0  0  0  0  0  0
    3.3204   -0.0990   -1.7915 H   0  0  0  0  0  0  0  0  0  0  0  0
   -0.2711    1.7214   -1.4246 H   0  0  0  0  0  0  0  0  0  0  0  0
   -0.5371    1.8877    0.3325 H   0  0  0  0  0  0  0  0  0  0  0  0
  1  2  2  0
  2  3  1  0
  3  4  1  0
  4  5  2  0
  5  6  1  0
  6  7  2  0
  7  8  1  0
  8  9  2  0
  9 10  1  0
 10 11  1  0
 11 12  1  0
 12 13  1  0
 13 14  1  0
 14 15  1  0
 15 16  1  0
 16 17  2  0
 17 18  1  0
 18 19  2  0
 19 20  1  0
 20 21  2  0
 20 22  1  0
 22 23  3  0
 14 24  1  0
 10  2  1  0
  9  4  1  0
 24 11  1  0
 21 16  1  0
  3 25  1  0
  5 26  1  0
  7 27  1  0
 11 28  1  0
 12 29  1  0
 12 30  1  0
 13 31  1  0
 13 32  1  0
 15 33  1  0
 15 34  1  0
 17 35  1  0
 18 36  1  0
 19 37  1  0
 21 38  1  0
 24 39  1  0
 24 40  1  0
M  END
>  <Unnamed: 0>  (252) 
1494

>  <ID>  (252) 
TRAIN_1494

>  <Canonical_Smiles>  (252) 
O=C1Nc2cncnc2N1C3CCN(Cc4cccc(c4)C#N)C3

>  <Inhibition>  (252) 
41.433715

>  <TDC_conf_true_inhibitor>  (252) 
1

>  <TDC_conf_non_inhibitor>  (252) 
0

>  <split>  (252) 
1

$$$$
252
     RDKit          3D

 31 34  0  0  0  0  0  0  0  0999 V2000
    0.8985   -2.5585    2.4001 N   0  0  0  0  0  0  0  0  0  0  0  0
   -0.2069   -1.9937    1.8693 C   0  0  0  0  0  0  0  0  0  0  0  0
   -1.4624   -2.3242    2.2966 N   0  0  0  0  0  0  0  0  0  0  0  0
   -2.4476   -1.6778    1.6540 N   0  0  0  0  0  0  0  0  0  0  0  0
   -1.7988   -0.8760    0.7933 C   0  0  0  0  0  0  0  0  0  0  0  0
   -2.6122    0.0927   -0.1517 C   0  0  0  0  0  0  0  0  0  0  0  0
   -3.9937    0.1557   -0.1513 C   0  0  0  0  0  0  0  0  0  0  0  0
   -4.4947    1.1074   -1.0898 C   0  0  0  0  0  0  0  0  0  0  0  0
   -3.4679    1.7238   -1.7577 C   0  0  0  0  0  0  0  0  0  0  0  0
   -3.7324    3.0615   -3.0964 Br  0  0  0  0  0  0  0  0  0  0  0  0
   -1.9370    1.1831   -1.2790 S   0  0  0  0  0  0  0  0  0  0  0  0
   -0.3876   -1.0417    0.8864 C   0  0  0  0  0  0  0  0  0  0  0  0
    0.7080   -0.4289    0.1678 C   0  0  0  0  0  0  0  0  0  0  0  0
    1.0786   -0.9267   -1.1004 C   0  0  0  0  0  0  0  0  0  0  0  0
    2.1340   -0.3474   -1.8115 C   0  0  0  0  0  0  0  0  0  0  0  0
    2.7905    0.7150   -1.2285 C   0  0  0  0  0  0  0  0  0  0  0  0
    3.8339    1.3974   -1.7714 O   0  0  0  0  0  0  0  0  0  0  0  0
    4.0833    2.3766   -0.7415 C   0  0  0  0  0  0  0  0  0  0  0  0
    3.2101    2.2456    0.3993 O   0  0  0  0  0  0  0  0  0  0  0  0
    2.4342    1.1988    0.0093 C   0  0  0  0  0  0  0  0  0  0  0  0
    1.3994    0.6494    0.7356 C   0  0  0  0  0  0  0  0  0  0  0  0
    1.8002   -2.4030    1.9502 H   0  0  0  0  0  0  0  0  0  0  0  0
    0.8699   -3.4212    2.9367 H   0  0  0  0  0  0  0  0  0  0  0  0
   -1.7120   -2.9811    3.0251 H   0  0  0  0  0  0  0  0  0  0  0  0
   -4.6139   -0.4549    0.4949 H   0  0  0  0  0  0  0  0  0  0  0  0
   -5.5444    1.3165   -1.2528 H   0  0  0  0  0  0  0  0  0  0  0  0
    0.5387   -1.7651   -1.5360 H   0  0  0  0  0  0  0  0  0  0  0  0
    2.4244   -0.7170   -2.7881 H   0  0  0  0  0  0  0  0  0  0  0  0
    5.1203    2.2714   -0.4024 H   0  0  0  0  0  0  0  0  0  0  0  0
    3.9535    3.3772   -1.1699 H   0  0  0  0  0  0  0  0  0  0  0  0
    1.1340    1.0454    1.7098 H   0  0  0  0  0  0  0  0  0  0  0  0
  1  2  1  0
  2  3  1  0
  3  4  1  0
  4  5  2  0
  5  6  1  0
  6  7  2  0
  7  8  1  0
  8  9  2  0
  9 10  1  0
  9 11  1  0
  5 12  1  0
 12 13  1  0
 13 14  2  0
 14 15  1  0
 15 16  2  0
 16 17  1  0
 17 18  1  0
 18 19  1  0
 19 20  1  0
 20 21  2  0
 12  2  2  0
 11  6  1  0
 21 13  1  0
 20 16  1  0
  1 22  1  0
  1 23  1  0
  3 24  1  0
  7 25  1  0
  8 26  1  0
 14 27  1  0
 15 28  1  0
 18 29  1  0
 18 30  1  0
 21 31  1  0
M  END
>  <Unnamed: 0>  (253) 
1498

>  <ID>  (253) 
TRAIN_1498

>  <Canonical_Smiles>  (253) 
Nc1[nH]nc(c2ccc(Br)s2)c1c3ccc4OCOc4c3

>  <Inhibition>  (253) 
94.519418

>  <TDC_conf_true_inhibitor>  (253) 
1

>  <TDC_conf_non_inhibitor>  (253) 
0

>  <split>  (253) 
1

$$$$
253
     RDKit          3D

 54 57  0  0  0  0  0  0  0  0999 V2000
   -3.9072    3.5801   -0.2320 C   0  0  0  0  0  0  0  0  0  0  0  0
   -3.9565    2.0865   -0.5223 C   0  0  0  0  0  0  0  0  0  0  0  0
   -2.8325    1.3402    0.2117 C   0  0  0  0  0  0  0  0  0  0  0  0
   -2.8185   -0.0943   -0.1292 N   0  0  0  0  0  0  0  0  0  0  0  0
   -3.8874   -0.8129    0.6257 C   0  0  0  0  0  0  0  0  0  0  0  0
   -4.1608   -2.2409    0.0946 C   0  0  0  0  0  0  0  0  0  0  0  0
   -2.8639   -2.9107   -0.0916 C   0  0  0  0  0  0  0  0  0  0  0  0
   -2.6071   -4.2365   -0.2598 N   0  0  0  0  0  0  0  0  0  0  0  0
   -1.2498   -4.3571   -0.3943 C   0  0  0  0  0  0  0  0  0  0  0  0
   -0.6451   -3.1902   -0.3260 N   0  0  0  0  0  0  0  0  0  0  0  0
   -1.6502   -2.2687   -0.1479 C   0  0  0  0  0  0  0  0  0  0  0  0
   -1.4458   -0.7549   -0.0010 C   0  0  0  0  0  0  0  0  0  0  0  0
   -0.5674   -0.2829   -1.1963 C   0  0  0  0  0  0  0  0  0  0  0  0
    0.9219   -0.5109   -0.9461 C   0  0  0  0  0  0  0  0  0  0  0  0
    1.3954    0.1309    0.2810 N   0  0  0  0  0  0  0  0  0  0  0  0
    0.3916    0.5291    1.2594 C   0  0  0  0  0  0  0  0  0  0  0  0
   -0.7426   -0.4837    1.3607 C   0  0  0  0  0  0  0  0  0  0  0  0
    2.7387    0.3784    0.5553 C   0  0  0  0  0  0  0  0  0  0  0  0
    3.0922    0.9846    1.5723 O   0  0  0  0  0  0  0  0  0  0  0  0
    3.7881   -0.1237   -0.4719 C   0  0  2  0  0  0  0  0  0  0  0  0
    5.1989   -0.1511    0.1068 C   0  0  0  0  0  0  0  0  0  0  0  0
    5.7417    1.2547   -0.1255 C   0  0  1  0  0  0  0  0  0  0  0  0
    7.0314    1.1558   -0.7262 O   0  0  0  0  0  0  0  0  0  0  0  0
    4.7398    1.9216   -1.0725 C   0  0  0  0  0  0  0  0  0  0  0  0
    3.9058    0.8295   -1.6089 N   0  0  0  0  0  0  0  0  0  0  0  0
   -4.7136    4.0958   -0.7629 H   0  0  0  0  0  0  0  0  0  0  0  0
   -2.9560    4.0129   -0.5580 H   0  0  0  0  0  0  0  0  0  0  0  0
   -4.0255    3.7750    0.8386 H   0  0  0  0  0  0  0  0  0  0  0  0
   -3.8607    1.9308   -1.6037 H   0  0  0  0  0  0  0  0  0  0  0  0
   -4.9416    1.7118   -0.2270 H   0  0  0  0  0  0  0  0  0  0  0  0
   -2.9243    1.4888    1.2950 H   0  0  0  0  0  0  0  0  0  0  0  0
   -1.9001    1.8262   -0.0855 H   0  0  0  0  0  0  0  0  0  0  0  0
   -4.8387   -0.2737    0.5680 H   0  0  0  0  0  0  0  0  0  0  0  0
   -3.6243   -0.8617    1.6907 H   0  0  0  0  0  0  0  0  0  0  0  0
   -4.7935   -2.7873    0.8018 H   0  0  0  0  0  0  0  0  0  0  0  0
   -4.6883   -2.1858   -0.8647 H   0  0  0  0  0  0  0  0  0  0  0  0
   -3.2778   -4.9924   -0.2838 H   0  0  0  0  0  0  0  0  0  0  0  0
   -0.7658   -5.3137   -0.5384 H   0  0  0  0  0  0  0  0  0  0  0  0
   -0.6980    0.7868   -1.3941 H   0  0  0  0  0  0  0  0  0  0  0  0
   -0.8638   -0.7920   -2.1232 H   0  0  0  0  0  0  0  0  0  0  0  0
    1.4803   -0.1165   -1.7993 H   0  0  0  0  0  0  0  0  0  0  0  0
    1.1648   -1.5747   -0.8725 H   0  0  0  0  0  0  0  0  0  0  0  0
    0.8503    0.6484    2.2471 H   0  0  0  0  0  0  0  0  0  0  0  0
    0.0242    1.5170    0.9647 H   0  0  0  0  0  0  0  0  0  0  0  0
   -0.3202   -1.4157    1.7623 H   0  0  0  0  0  0  0  0  0  0  0  0
   -1.4559   -0.1506    2.1232 H   0  0  0  0  0  0  0  0  0  0  0  0
    3.5055   -1.1236   -0.8154 H   0  0  0  0  0  0  0  0  0  0  0  0
    5.2152   -0.4104    1.1708 H   0  0  0  0  0  0  0  0  0  0  0  0
    5.8100   -0.8953   -0.4197 H   0  0  0  0  0  0  0  0  0  0  0  0
    5.8362    1.8097    0.8137 H   0  0  0  0  0  0  0  0  0  0  0  0
    7.3704    2.0620   -0.8264 H   0  0  0  0  0  0  0  0  0  0  0  0
    4.1002    2.6226   -0.5247 H   0  0  0  0  0  0  0  0  0  0  0  0
    5.2234    2.4701   -1.8870 H   0  0  0  0  0  0  0  0  0  0  0  0
    4.4569    0.3623   -2.3325 H   0  0  0  0  0  0  0  0  0  0  0  0
  1  2  1  0
  2  3  1  0
  3  4  1  0
  4  5  1  0
  5  6  1  0
  6  7  1  0
  7  8  1  0
  8  9  1  0
  9 10  2  0
 10 11  1  0
 11 12  1  0
 12 13  1  0
 13 14  1  0
 14 15  1  0
 15 16  1  0
 16 17  1  0
 15 18  1  0
 18 19  2  0
 18 20  1  0
 20 21  1  0
 21 22  1  0
 22 23  1  0
 22 24  1  0
 24 25  1  0
 12  4  1  0
 11  7  2  0
 17 12  1  0
 25 20  1  0
  1 26  1  0
  1 27  1  0
  1 28  1  0
  2 29  1  0
  2 30  1  0
  3 31  1  0
  3 32  1  0
  5 33  1  0
  5 34  1  0
  6 35  1  0
  6 36  1  0
  8 37  1  0
  9 38  1  0
 13 39  1  0
 13 40  1  0
 14 41  1  0
 14 42  1  0
 16 43  1  0
 16 44  1  0
 17 45  1  0
 17 46  1  0
 20 47  1  6
 21 48  1  0
 21 49  1  0
 22 50  1  1
 23 51  1  0
 24 52  1  0
 24 53  1  0
 25 54  1  0
M  END
>  <Unnamed: 0>  (254) 
1500

>  <ID>  (254) 
TRAIN_1500

>  <Canonical_Smiles>  (254) 
CCCN1CCc2[nH]cnc2C13CCN(CC3)C(=O)[C@@H]4C[C@@H](O)CN4

>  <Inhibition>  (254) 
46.271891

>  <TDC_conf_true_inhibitor>  (254) 
0

>  <TDC_conf_non_inhibitor>  (254) 
1

>  <split>  (254) 
1

$$$$
254
     RDKit          3D

 52 55  0  0  0  0  0  0  0  0999 V2000
   -2.4701    4.2315    0.1099 C   0  0  0  0  0  0  0  0  0  0  0  0
   -2.7686    3.2833   -1.0360 C   0  0  0  0  0  0  0  0  0  0  0  0
   -3.2345    2.0249   -0.5264 O   0  0  0  0  0  0  0  0  0  0  0  0
   -2.2784    1.1187   -0.2213 C   0  0  0  0  0  0  0  0  0  0  0  0
   -1.0701    1.2887   -0.3204 O   0  0  0  0  0  0  0  0  0  0  0  0
   -2.8806   -0.1163    0.3112 C   0  0  0  0  0  0  0  0  0  0  0  0
   -2.1462   -1.0136    1.0011 C   0  0  0  0  0  0  0  0  0  0  0  0
   -0.7953   -0.9016    1.2122 N   0  0  0  0  0  0  0  0  0  0  0  0
    0.0730   -1.7651    1.8625 C   0  0  0  0  0  0  0  0  0  0  0  0
   -0.2149   -2.8331    2.3944 O   0  0  0  0  0  0  0  0  0  0  0  0
    1.5047   -1.2561    1.8700 C   0  0  0  0  0  0  0  0  0  0  0  0
    2.2731   -1.6063    0.2646 S   0  0  0  0  0  0  0  0  0  0  0  0
    3.8426   -0.9155    0.5220 C   0  0  0  0  0  0  0  0  0  0  0  0
    4.8719   -1.0769   -0.3620 O   0  0  0  0  0  0  0  0  0  0  0  0
    5.8856   -0.3680    0.2333 C   0  0  0  0  0  0  0  0  0  0  0  0
    5.5011    0.1793    1.3727 N   0  0  0  0  0  0  0  0  0  0  0  0
    4.1815   -0.1752    1.5574 N   0  0  0  0  0  0  0  0  0  0  0  0
    7.3221   -0.2193   -0.3597 C   0  0  0  0  0  0  0  0  0  0  0  0
    8.3826    0.5062    0.2255 C   0  0  0  0  0  0  0  0  0  0  0  0
    9.4242    0.3474   -0.6543 C   0  0  0  0  0  0  0  0  0  0  0  0
   10.8200    0.8165   -0.6942 C   0  0  0  0  0  0  0  0  0  0  0  0
    9.0174   -0.4280   -1.6960 O   0  0  0  0  0  0  0  0  0  0  0  0
    7.6908   -0.7842   -1.5155 N   0  0  0  0  0  0  0  0  0  0  0  0
   -3.1061   -2.3196    1.6326 S   0  0  0  0  0  0  0  0  0  0  0  0
   -4.4401   -1.9616    0.4613 C   0  0  0  0  0  0  0  0  0  0  0  0
   -5.8481   -2.3668    0.8778 C   0  0  0  0  0  0  0  0  0  0  0  0
   -6.9047   -1.5650    0.0978 C   0  0  0  0  0  0  0  0  0  0  0  0
   -6.3739   -1.0186   -1.2315 C   0  0  0  0  0  0  0  0  0  0  0  0
   -5.1236   -0.1328   -1.0642 C   0  0  0  0  0  0  0  0  0  0  0  0
   -4.3511   -0.4466    0.2279 C   0  0  0  0  0  0  0  0  0  0  0  0
   -3.3555    4.3641    0.7392 H   0  0  0  0  0  0  0  0  0  0  0  0
   -2.1553    5.2076   -0.2674 H   0  0  0  0  0  0  0  0  0  0  0  0
   -1.6791    3.8341    0.7536 H   0  0  0  0  0  0  0  0  0  0  0  0
   -3.5716    3.6946   -1.6568 H   0  0  0  0  0  0  0  0  0  0  0  0
   -1.8950    3.1507   -1.6846 H   0  0  0  0  0  0  0  0  0  0  0  0
   -0.3614   -0.0947    0.7585 H   0  0  0  0  0  0  0  0  0  0  0  0
    1.5063   -0.1806    2.0785 H   0  0  0  0  0  0  0  0  0  0  0  0
    2.0516   -1.7609    2.6732 H   0  0  0  0  0  0  0  0  0  0  0  0
    8.3798    1.0624    1.1508 H   0  0  0  0  0  0  0  0  0  0  0  0
   11.0277    1.5011    0.1336 H   0  0  0  0  0  0  0  0  0  0  0  0
   11.5105   -0.0290   -0.6196 H   0  0  0  0  0  0  0  0  0  0  0  0
   11.0214    1.3454   -1.6306 H   0  0  0  0  0  0  0  0  0  0  0  0
   -4.1792   -2.4977   -0.4626 H   0  0  0  0  0  0  0  0  0  0  0  0
   -6.0137   -2.2136    1.9512 H   0  0  0  0  0  0  0  0  0  0  0  0
   -5.9856   -3.4387    0.6893 H   0  0  0  0  0  0  0  0  0  0  0  0
   -7.7866   -2.1918   -0.0764 H   0  0  0  0  0  0  0  0  0  0  0  0
   -7.2412   -0.7225    0.7150 H   0  0  0  0  0  0  0  0  0  0  0  0
   -7.1581   -0.4511   -1.7452 H   0  0  0  0  0  0  0  0  0  0  0  0
   -6.1275   -1.8638   -1.8866 H   0  0  0  0  0  0  0  0  0  0  0  0
   -5.4426    0.9158   -1.0468 H   0  0  0  0  0  0  0  0  0  0  0  0
   -4.4830   -0.2483   -1.9466 H   0  0  0  0  0  0  0  0  0  0  0  0
   -4.8461    0.0906    1.0514 H   0  0  0  0  0  0  0  0  0  0  0  0
  1  2  1  0
  2  3  1  0
  3  4  1  0
  4  5  2  0
  4  6  1  0
  6  7  2  0
  7  8  1  0
  8  9  1  0
  9 10  2  0
  9 11  1  0
 11 12  1  0
 12 13  1  0
 13 14  1  0
 14 15  1  0
 15 16  2  0
 16 17  1  0
 15 18  1  0
 18 19  1  0
 19 20  2  0
 20 21  1  0
 20 22  1  0
 22 23  1  0
  7 24  1  0
 24 25  1  0
 25 26  1  0
 26 27  1  0
 27 28  1  0
 28 29  1  0
 29 30  1  0
 30  6  1  0
 17 13  2  0
 23 18  2  0
 30 25  1  0
  1 31  1  0
  1 32  1  0
  1 33  1  0
  2 34  1  0
  2 35  1  0
  8 36  1  0
 11 37  1  0
 11 38  1  0
 19 39  1  0
 21 40  1  0
 21 41  1  0
 21 42  1  0
 25 43  1  0
 26 44  1  0
 26 45  1  0
 27 46  1  0
 27 47  1  0
 28 48  1  0
 28 49  1  0
 29 50  1  0
 29 51  1  0
 30 52  1  0
M  END
>  <Unnamed: 0>  (255) 
1511

>  <ID>  (255) 
TRAIN_1511

>  <Canonical_Smiles>  (255) 
CCOC(=O)C1=C(NC(=O)CSc2oc(nn2)c3cc(C)on3)SC4CCCCC14

>  <Inhibition>  (255) 
83.021319

>  <TDC_conf_true_inhibitor>  (255) 
1

>  <TDC_conf_non_inhibitor>  (255) 
0

>  <split>  (255) 
1

$$$$
255
     RDKit          3D

 40 41  0  0  0  0  0  0  0  0999 V2000
    3.2042   -2.0906   -0.6887 C   0  0  0  0  0  0  0  0  0  0  0  0
    3.1356   -0.9334    0.2078 N   0  0  0  0  0  0  0  0  0  0  0  0
    2.8080   -1.3764    1.5635 C   0  0  0  0  0  0  0  0  0  0  0  0
    2.2242    0.0934   -0.3263 C   0  0  2  0  0  0  0  0  0  0  0  0
    2.2249    1.4333    0.4179 C   0  0  0  0  0  0  0  0  0  0  0  0
    0.9237    2.0923   -0.0449 C   0  0  1  0  0  0  0  0  0  0  0  0
    1.0861    2.7877   -1.4171 C   0  0  0  0  0  0  0  0  0  0  0  0
   -0.0392    3.6075   -1.7273 O   0  0  0  0  0  0  0  0  0  0  0  0
    0.0015    0.9445    0.0128 N   0  0  0  0  0  0  0  0  0  0  0  0
   -1.3152    1.1569   -0.5882 C   0  0  0  0  0  0  0  0  0  0  0  0
   -2.3391    0.1466   -0.1016 C   0  0  0  0  0  0  0  0  0  0  0  0
   -2.8673    0.2366    1.2044 C   0  0  0  0  0  0  0  0  0  0  0  0
   -2.4220    1.5028    2.3009 Cl  0  0  0  0  0  0  0  0  0  0  0  0
   -3.7972   -0.6965    1.6798 C   0  0  0  0  0  0  0  0  0  0  0  0
   -4.2248   -1.7419    0.8680 C   0  0  0  0  0  0  0  0  0  0  0  0
   -3.7201   -1.8485   -0.4238 C   0  0  0  0  0  0  0  0  0  0  0  0
   -4.1439   -2.8780   -1.2221 O   0  0  0  0  0  0  0  0  0  0  0  0
   -2.7860   -0.9174   -0.9144 C   0  0  0  0  0  0  0  0  0  0  0  0
   -2.2117   -1.1177   -2.5417 Cl  0  0  0  0  0  0  0  0  0  0  0  0
    0.7206   -0.2346   -0.4905 C   0  0  0  0  0  0  0  0  0  0  0  0
    3.5068   -1.7838   -1.6962 H   0  0  0  0  0  0  0  0  0  0  0  0
    2.2483   -2.6211   -0.7615 H   0  0  0  0  0  0  0  0  0  0  0  0
    3.9634   -2.8004   -0.3412 H   0  0  0  0  0  0  0  0  0  0  0  0
    2.8632   -0.5543    2.2823 H   0  0  0  0  0  0  0  0  0  0  0  0
    3.5425   -2.1151    1.9063 H   0  0  0  0  0  0  0  0  0  0  0  0
    1.8176   -1.8367    1.6353 H   0  0  0  0  0  0  0  0  0  0  0  0
    2.6023    0.3316   -1.3324 H   0  0  0  0  0  0  0  0  0  0  0  0
    2.1868    1.3018    1.5050 H   0  0  0  0  0  0  0  0  0  0  0  0
    3.1143    2.0298    0.1884 H   0  0  0  0  0  0  0  0  0  0  0  0
    0.6061    2.8407    0.6913 H   0  0  0  0  0  0  0  0  0  0  0  0
    1.2075    2.0663   -2.2312 H   0  0  0  0  0  0  0  0  0  0  0  0
    1.9698    3.4347   -1.4144 H   0  0  0  0  0  0  0  0  0  0  0  0
   -0.1520    4.2378   -0.9948 H   0  0  0  0  0  0  0  0  0  0  0  0
   -1.2531    1.1848   -1.6808 H   0  0  0  0  0  0  0  0  0  0  0  0
   -1.6967    2.1494   -0.3145 H   0  0  0  0  0  0  0  0  0  0  0  0
   -4.1917   -0.6089    2.6900 H   0  0  0  0  0  0  0  0  0  0  0  0
   -4.9453   -2.4551    1.2565 H   0  0  0  0  0  0  0  0  0  0  0  0
   -4.7900   -3.4207   -0.7423 H   0  0  0  0  0  0  0  0  0  0  0  0
    0.4129   -1.1193    0.0737 H   0  0  0  0  0  0  0  0  0  0  0  0
    0.5247   -0.4282   -1.5515 H   0  0  0  0  0  0  0  0  0  0  0  0
  1  2  1  0
  2  3  1  0
  2  4  1  0
  4  5  1  0
  5  6  1  0
  6  7  1  0
  7  8  1  0
  6  9  1  0
  9 10  1  0
 10 11  1  0
 11 12  2  0
 12 13  1  0
 12 14  1  0
 14 15  2  0
 15 16  1  0
 16 17  1  0
 16 18  2  0
 18 19  1  0
  9 20  1  0
 20  4  1  0
 18 11  1  0
  1 21  1  0
  1 22  1  0
  1 23  1  0
  3 24  1  0
  3 25  1  0
  3 26  1  0
  4 27  1  6
  5 28  1  0
  5 29  1  0
  6 30  1  1
  7 31  1  0
  7 32  1  0
  8 33  1  0
 10 34  1  0
 10 35  1  0
 14 36  1  0
 15 37  1  0
 17 38  1  0
 20 39  1  0
 20 40  1  0
M  END
>  <Unnamed: 0>  (256) 
1516

>  <ID>  (256) 
TRAIN_1516

>  <Canonical_Smiles>  (256) 
CN(C)[C@@H]1C[C@@H](CO)N(Cc2c(Cl)ccc(O)c2Cl)C1

>  <Inhibition>  (256) 
38.504538

>  <TDC_conf_true_inhibitor>  (256) 
0

>  <TDC_conf_non_inhibitor>  (256) 
1

>  <split>  (256) 
1

$$$$
256
     RDKit          3D

 39 41  0  0  0  0  0  0  0  0999 V2000
   -0.0530   -0.8057   -3.4916 C   0  0  0  0  0  0  0  0  0  0  0  0
   -0.4545   -0.7889   -2.0505 C   0  0  0  0  0  0  0  0  0  0  0  0
    0.3592   -1.3991   -1.1733 N   0  0  0  0  0  0  0  0  0  0  0  0
    0.0030   -1.3520    0.1156 C   0  0  0  0  0  0  0  0  0  0  0  0
    0.8543   -2.0070    1.0024 N   0  0  0  0  0  0  0  0  0  0  0  0
    1.4005   -1.2060    2.1085 C   0  0  0  0  0  0  0  0  0  0  0  0
    2.3344   -0.0774    1.6528 C   0  0  0  0  0  0  0  0  0  0  0  0
    3.6047   -0.5790    1.0597 C   0  0  0  0  0  0  0  0  0  0  0  0
    3.9414   -0.7359   -0.2679 C   0  0  0  0  0  0  0  0  0  0  0  0
    5.2145   -1.2316   -0.2606 N   0  0  0  0  0  0  0  0  0  0  0  0
    5.5996   -1.3548    1.0436 C   0  0  0  0  0  0  0  0  0  0  0  0
    4.6497   -0.9699    1.8644 N   0  0  0  0  0  0  0  0  0  0  0  0
   -1.1488   -0.7204    0.5348 C   0  0  0  0  0  0  0  0  0  0  0  0
   -1.9283   -0.0968   -0.4227 C   0  0  0  0  0  0  0  0  0  0  0  0
   -1.5782   -0.1257   -1.7256 N   0  0  0  0  0  0  0  0  0  0  0  0
   -3.2698    0.6597   -0.1387 C   0  0  2  0  0  0  0  0  0  0  0  0
   -3.5084    2.0322   -0.8302 C   0  0  0  0  0  0  0  0  0  0  0  0
   -4.2747    2.4710    0.4357 C   0  0  2  0  0  0  0  0  0  0  0  0
   -4.0916    3.8345    0.8496 O   0  0  0  0  0  0  0  0  0  0  0  0
   -3.4455    1.4198    1.2049 C   0  0  0  0  0  0  0  0  0  0  0  0
    0.4588   -1.7413   -3.7367 H   0  0  0  0  0  0  0  0  0  0  0  0
   -0.9307   -0.7159   -4.1388 H   0  0  0  0  0  0  0  0  0  0  0  0
    0.6224    0.0301   -3.6952 H   0  0  0  0  0  0  0  0  0  0  0  0
    1.6067   -2.3871    0.4267 H   0  0  0  0  0  0  0  0  0  0  0  0
    1.9470   -1.8897    2.7696 H   0  0  0  0  0  0  0  0  0  0  0  0
    0.5869   -0.7884    2.7131 H   0  0  0  0  0  0  0  0  0  0  0  0
    1.8287    0.5853    0.9408 H   0  0  0  0  0  0  0  0  0  0  0  0
    2.5839    0.5404    2.5246 H   0  0  0  0  0  0  0  0  0  0  0  0
    3.3954   -0.5488   -1.1825 H   0  0  0  0  0  0  0  0  0  0  0  0
    5.7733   -1.4675   -1.0689 H   0  0  0  0  0  0  0  0  0  0  0  0
    6.5738   -1.7275    1.3304 H   0  0  0  0  0  0  0  0  0  0  0  0
   -1.4470   -0.7258    1.5743 H   0  0  0  0  0  0  0  0  0  0  0  0
   -4.1227   -0.0157   -0.3137 H   0  0  0  0  0  0  0  0  0  0  0  0
   -4.1033    1.9936   -1.7473 H   0  0  0  0  0  0  0  0  0  0  0  0
   -2.5992    2.6141   -1.0233 H   0  0  0  0  0  0  0  0  0  0  0  0
   -5.3425    2.2207    0.3954 H   0  0  0  0  0  0  0  0  0  0  0  0
   -4.5333    4.3667    0.1654 H   0  0  0  0  0  0  0  0  0  0  0  0
   -3.9882    0.8727    1.9811 H   0  0  0  0  0  0  0  0  0  0  0  0
   -2.5186    1.8169    1.6361 H   0  0  0  0  0  0  0  0  0  0  0  0
  1  2  1  0
  2  3  2  0
  3  4  1  0
  4  5  1  0
  5  6  1  0
  6  7  1  0
  7  8  1  0
  8  9  2  0
  9 10  1  0
 10 11  1  0
 11 12  2  0
  4 13  2  0
 13 14  1  0
 14 15  2  0
 14 16  1  0
 16 17  1  0
 17 18  1  0
 18 19  1  0
 18 20  1  0
 15  2  1  0
 12  8  1  0
 20 16  1  0
  1 21  1  0
  1 22  1  0
  1 23  1  0
  5 24  1  0
  6 25  1  0
  6 26  1  0
  7 27  1  0
  7 28  1  0
  9 29  1  0
 10 30  1  0
 11 31  1  0
 13 32  1  0
 16 33  1  6
 17 34  1  0
 17 35  1  0
 18 36  1  6
 19 37  1  0
 20 38  1  0
 20 39  1  0
M  END
>  <Unnamed: 0>  (257) 
1518

>  <ID>  (257) 
TRAIN_1518

>  <Canonical_Smiles>  (257) 
Cc1nc(NCCc2c[nH]cn2)cc(n1)[C@@H]3C[C@H](O)C3

>  <Inhibition>  (257) 
44.723406

>  <TDC_conf_true_inhibitor>  (257) 
1

>  <TDC_conf_non_inhibitor>  (257) 
0

>  <split>  (257) 
1

$$$$
257
     RDKit          3D

 39 41  0  0  0  0  0  0  0  0999 V2000
    1.5552   -0.3657    2.8893 C   0  0  0  0  0  0  0  0  0  0  0  0
    2.0847    0.5029    1.8628 N   0  0  0  0  0  0  0  0  0  0  0  0
    1.2480    1.3555    1.2239 N   0  0  0  0  0  0  0  0  0  0  0  0
    2.0449    1.9906    0.3415 C   0  0  0  0  0  0  0  0  0  0  0  0
    1.4746    2.9990   -0.6080 C   0  0  0  0  0  0  0  0  0  0  0  0
    0.3050    2.4379   -1.2536 N   0  0  0  0  0  0  0  0  0  0  0  0
    0.4428    1.5553   -2.3062 C   0  0  0  0  0  0  0  0  0  0  0  0
    1.4984    1.4128   -2.9250 O   0  0  0  0  0  0  0  0  0  0  0  0
   -0.8079    0.8048   -2.6956 C   0  0  0  0  0  0  0  0  0  0  0  0
   -1.3932    0.1361   -1.5540 N   0  0  0  0  0  0  0  0  0  0  0  0
   -2.3581    0.7581   -0.8226 N   0  0  0  0  0  0  0  0  0  0  0  0
   -2.6499   -0.1057    0.1879 C   0  0  0  0  0  0  0  0  0  0  0  0
   -1.8536   -1.2571    0.0653 C   0  0  0  0  0  0  0  0  0  0  0  0
   -1.5639   -2.5404    0.7240 C   0  0  0  0  0  0  0  0  0  0  0  0
   -0.5828   -3.2243   -0.3003 C   0  0  0  0  0  0  0  0  0  0  0  0
   -0.1210   -2.1404   -1.3357 C   0  0  0  0  0  0  0  0  0  0  0  0
   -1.0760   -1.0660   -1.0343 C   0  0  0  0  0  0  0  0  0  0  0  0
   -3.6645    0.1961    1.2579 C   0  0  0  0  0  0  0  0  0  0  0  0
   -4.9304    0.2800    0.7678 F   0  0  0  0  0  0  0  0  0  0  0  0
   -3.4117    1.3686    1.8991 F   0  0  0  0  0  0  0  0  0  0  0  0
   -3.6921   -0.7693    2.2212 F   0  0  0  0  0  0  0  0  0  0  0  0
    3.3949    1.5676    0.4546 C   0  0  0  0  0  0  0  0  0  0  0  0
    4.7208    2.1362   -0.4326 Cl  0  0  0  0  0  0  0  0  0  0  0  0
    3.3725    0.6086    1.4320 C   0  0  0  0  0  0  0  0  0  0  0  0
    4.6060   -0.3490    2.1083 Cl  0  0  0  0  0  0  0  0  0  0  0  0
    0.4640   -0.2994    2.8997 H   0  0  0  0  0  0  0  0  0  0  0  0
    1.8521   -1.3943    2.6632 H   0  0  0  0  0  0  0  0  0  0  0  0
    1.9566   -0.0417    3.8543 H   0  0  0  0  0  0  0  0  0  0  0  0
    1.1581    3.8910   -0.0586 H   0  0  0  0  0  0  0  0  0  0  0  0
    2.2009    3.2919   -1.3698 H   0  0  0  0  0  0  0  0  0  0  0  0
   -0.5090    2.3218   -0.6573 H   0  0  0  0  0  0  0  0  0  0  0  0
   -1.5423    1.4886   -3.1372 H   0  0  0  0  0  0  0  0  0  0  0  0
   -0.5590    0.0338   -3.4391 H   0  0  0  0  0  0  0  0  0  0  0  0
   -1.0655   -2.3875    1.6859 H   0  0  0  0  0  0  0  0  0  0  0  0
   -2.4603   -3.1505    0.8740 H   0  0  0  0  0  0  0  0  0  0  0  0
    0.2731   -3.6823    0.2062 H   0  0  0  0  0  0  0  0  0  0  0  0
   -1.1121   -4.0263   -0.8280 H   0  0  0  0  0  0  0  0  0  0  0  0
    0.9075   -1.8280   -1.1364 H   0  0  0  0  0  0  0  0  0  0  0  0
   -0.2068   -2.5093   -2.3607 H   0  0  0  0  0  0  0  0  0  0  0  0
  1  2  1  0
  2  3  1  0
  3  4  2  0
  4  5  1  0
  5  6  1  0
  6  7  1  0
  7  8  2  0
  7  9  1  0
  9 10  1  0
 10 11  1  0
 11 12  2  0
 12 13  1  0
 13 14  1  0
 14 15  1  0
 15 16  1  0
 16 17  1  0
 12 18  1  0
 18 19  1  0
 18 20  1  0
 18 21  1  0
  4 22  1  0
 22 23  1  0
 22 24  2  0
 24 25  1  0
 24  2  1  0
 17 10  1  0
 17 13  2  0
  1 26  1  0
  1 27  1  0
  1 28  1  0
  5 29  1  0
  5 30  1  0
  6 31  1  0
  9 32  1  0
  9 33  1  0
 14 34  1  0
 14 35  1  0
 15 36  1  0
 15 37  1  0
 16 38  1  0
 16 39  1  0
M  END
>  <Unnamed: 0>  (258) 
1528

>  <ID>  (258) 
TRAIN_1528

>  <Canonical_Smiles>  (258) 
Cn1nc(CNC(=O)Cn2nc(c3CCCc23)C(F)(F)F)c(Cl)c1Cl

>  <Inhibition>  (258) 
44.933377

>  <TDC_conf_true_inhibitor>  (258) 
1

>  <TDC_conf_non_inhibitor>  (258) 
0

>  <split>  (258) 
1

$$$$
258
     RDKit          3D

 29 31  0  0  0  0  0  0  0  0999 V2000
   -2.8425    2.9884   -0.3411 C   0  0  0  0  0  0  0  0  0  0  0  0
   -2.9910    1.9211    0.6256 N   0  0  0  0  0  0  0  0  0  0  0  0
   -4.1883    1.7618    1.2273 N   0  0  0  0  0  0  0  0  0  0  0  0
   -4.0022    0.7159    2.0301 C   0  0  0  0  0  0  0  0  0  0  0  0
   -2.6939    0.2117    1.9486 C   0  0  0  0  0  0  0  0  0  0  0  0
   -2.1284   -1.1151    2.8442 Cl  0  0  0  0  0  0  0  0  0  0  0  0
   -2.0349    1.0089    1.0271 C   0  0  0  0  0  0  0  0  0  0  0  0
   -0.6778    0.9904    0.5245 C   0  0  0  0  0  0  0  0  0  0  0  0
   -0.2552    1.8190   -0.2796 O   0  0  0  0  0  0  0  0  0  0  0  0
    0.1308   -0.0194    1.0201 N   0  0  0  0  0  0  0  0  0  0  0  0
    1.2418   -0.3675    0.2250 N   0  0  0  0  0  0  0  0  0  0  0  0
    2.3762    0.4299    0.2831 C   0  0  0  0  0  0  0  0  0  0  0  0
    3.4931    0.2073   -0.3592 N   0  0  0  0  0  0  0  0  0  0  0  0
    3.3905   -0.9216   -1.1146 C   0  0  0  0  0  0  0  0  0  0  0  0
    4.3750   -1.4136   -1.9201 N   0  0  0  0  0  0  0  0  0  0  0  0
    4.0223   -2.5522   -2.5584 N   0  0  0  0  0  0  0  0  0  0  0  0
    2.7691   -2.7743   -2.1425 C   0  0  0  0  0  0  0  0  0  0  0  0
    2.3232   -1.7934   -1.2437 C   0  0  0  0  0  0  0  0  0  0  0  0
    1.1100   -1.5410   -0.5028 C   0  0  0  0  0  0  0  0  0  0  0  0
    0.0900   -2.3352   -0.5314 N   0  0  0  0  0  0  0  0  0  0  0  0
   -3.7949    3.5150   -0.4493 H   0  0  0  0  0  0  0  0  0  0  0  0
   -2.0820    3.6830    0.0231 H   0  0  0  0  0  0  0  0  0  0  0  0
   -2.5588    2.5511   -1.3013 H   0  0  0  0  0  0  0  0  0  0  0  0
   -4.8260    0.3670    2.6396 H   0  0  0  0  0  0  0  0  0  0  0  0
   -0.3403   -0.8464    1.3840 H   0  0  0  0  0  0  0  0  0  0  0  0
    2.2802    1.3073    0.9446 H   0  0  0  0  0  0  0  0  0  0  0  0
    5.2976   -1.0234   -2.0733 H   0  0  0  0  0  0  0  0  0  0  0  0
    2.2466   -3.6441   -2.5189 H   0  0  0  0  0  0  0  0  0  0  0  0
    0.2697   -3.1304   -1.1525 H   0  0  0  0  0  0  0  0  0  0  0  0
  1  2  1  0
  2  3  1  0
  3  4  2  0
  4  5  1  0
  5  6  1  0
  5  7  2  0
  7  8  1  0
  8  9  2  0
  8 10  1  0
 10 11  1  0
 11 12  1  0
 12 13  2  0
 13 14  1  0
 14 15  1  0
 15 16  1  0
 16 17  2  0
 17 18  1  0
 18 19  1  0
 19 20  2  3
  7  2  1  0
 19 11  1  0
 18 14  2  0
  1 21  1  0
  1 22  1  0
  1 23  1  0
  4 24  1  0
 10 25  1  0
 12 26  1  0
 15 27  1  0
 17 28  1  0
 20 29  1  0
M  END
>  <Unnamed: 0>  (259) 
1540

>  <ID>  (259) 
TRAIN_1540

>  <Canonical_Smiles>  (259) 
Cn1ncc(Cl)c1C(=O)NN2C=Nc3[nH]ncc3C2=N

>  <Inhibition>  (259) 
19.418724

>  <TDC_conf_true_inhibitor>  (259) 
0

>  <TDC_conf_non_inhibitor>  (259) 
1

>  <split>  (259) 
1

$$$$
259
     RDKit          3D

 33 34  0  0  0  0  0  0  0  0999 V2000
   -2.2629    1.2458    0.7011 C   0  0  0  0  0  0  0  0  0  0  0  0
   -3.0231    0.9482   -0.5829 C   0  0  0  0  0  0  0  0  0  0  0  0
   -2.3590   -0.1103   -1.3572 N   0  0  0  0  0  0  0  0  0  0  0  0
   -2.6940   -1.4338   -1.1347 C   0  0  0  0  0  0  0  0  0  0  0  0
   -2.1291   -2.4337   -1.8110 C   0  0  0  0  0  0  0  0  0  0  0  0
   -1.1071   -2.0993   -2.8286 C   0  0  0  0  0  0  0  0  0  0  0  0
   -0.5880   -3.0173   -3.4548 O   0  0  0  0  0  0  0  0  0  0  0  0
   -0.7789   -0.7795   -3.0144 N   0  0  0  0  0  0  0  0  0  0  0  0
   -1.3694    0.1320   -2.3080 C   0  0  0  0  0  0  0  0  0  0  0  0
   -0.8501    1.7882   -2.6363 S   0  0  0  0  0  0  0  0  0  0  0  0
    0.9485    1.5484   -2.5790 C   0  0  0  0  0  0  0  0  0  0  0  0
    1.4101    1.1446   -1.2465 C   0  0  0  0  0  0  0  0  0  0  0  0
    1.7705    0.7843   -0.1593 C   0  0  0  0  0  0  0  0  0  0  0  0
    2.1907    0.3256    1.1276 C   0  0  0  0  0  0  0  0  0  0  0  0
    2.0847   -1.0300    1.4519 C   0  0  0  0  0  0  0  0  0  0  0  0
    2.4992   -1.4834    2.7070 C   0  0  0  0  0  0  0  0  0  0  0  0
    3.0180   -0.5787    3.6323 C   0  0  0  0  0  0  0  0  0  0  0  0
    3.5420   -1.1393    5.1724 Cl  0  0  0  0  0  0  0  0  0  0  0  0
    3.1217    0.7756    3.3156 C   0  0  0  0  0  0  0  0  0  0  0  0
    2.7086    1.2284    2.0598 C   0  0  0  0  0  0  0  0  0  0  0  0
   -1.2522    1.6095    0.4970 H   0  0  0  0  0  0  0  0  0  0  0  0
   -2.7875    2.0130    1.2805 H   0  0  0  0  0  0  0  0  0  0  0  0
   -2.1757    0.3499    1.3249 H   0  0  0  0  0  0  0  0  0  0  0  0
   -3.1572    1.8618   -1.1715 H   0  0  0  0  0  0  0  0  0  0  0  0
   -4.0417    0.6312   -0.3224 H   0  0  0  0  0  0  0  0  0  0  0  0
   -3.4471   -1.6175   -0.3749 H   0  0  0  0  0  0  0  0  0  0  0  0
   -2.3692   -3.4765   -1.6634 H   0  0  0  0  0  0  0  0  0  0  0  0
    1.4121    2.5027   -2.8495 H   0  0  0  0  0  0  0  0  0  0  0  0
    1.2586    0.8230   -3.3382 H   0  0  0  0  0  0  0  0  0  0  0  0
    1.6856   -1.7386    0.7297 H   0  0  0  0  0  0  0  0  0  0  0  0
    2.4206   -2.5392    2.9522 H   0  0  0  0  0  0  0  0  0  0  0  0
    3.5257    1.4804    4.0370 H   0  0  0  0  0  0  0  0  0  0  0  0
    2.7957    2.2843    1.8145 H   0  0  0  0  0  0  0  0  0  0  0  0
  1  2  1  0
  2  3  1  0
  3  4  1  0
  4  5  2  0
  5  6  1  0
  6  7  2  0
  6  8  1  0
  8  9  2  0
  9 10  1  0
 10 11  1  0
 11 12  1  0
 12 13  3  0
 13 14  1  0
 14 15  2  0
 15 16  1  0
 16 17  2  0
 17 18  1  0
 17 19  1  0
 19 20  2  0
  9  3  1  0
 20 14  1  0
  1 21  1  0
  1 22  1  0
  1 23  1  0
  2 24  1  0
  2 25  1  0
  4 26  1  0
  5 27  1  0
 11 28  1  0
 11 29  1  0
 15 30  1  0
 16 31  1  0
 19 32  1  0
 20 33  1  0
M  END
>  <Unnamed: 0>  (260) 
1542

>  <ID>  (260) 
TRAIN_1542

>  <Canonical_Smiles>  (260) 
CCN1C=CC(=O)N=C1SCC#Cc2ccc(Cl)cc2

>  <Inhibition>  (260) 
35.307402

>  <TDC_conf_true_inhibitor>  (260) 
1

>  <TDC_conf_non_inhibitor>  (260) 
0

>  <split>  (260) 
1

$$$$
260
     RDKit          3D

 45 47  0  0  0  0  0  0  0  0999 V2000
   -0.7136    0.7126    3.3002 C   0  0  0  0  0  0  0  0  0  0  0  0
   -0.7530    0.3455    1.9007 N   0  0  0  0  0  0  0  0  0  0  0  0
   -1.9428    0.0251    1.3552 N   0  0  0  0  0  0  0  0  0  0  0  0
   -1.6703   -0.2672    0.0733 C   0  0  0  0  0  0  0  0  0  0  0  0
   -0.2724   -0.1385   -0.1641 C   0  0  0  0  0  0  0  0  0  0  0  0
    0.3066    0.2654    1.0273 C   0  0  0  0  0  0  0  0  0  0  0  0
    1.6857    0.5612    1.3792 C   0  0  0  0  0  0  0  0  0  0  0  0
    1.9873    0.9889    2.4881 O   0  0  0  0  0  0  0  0  0  0  0  0
    2.5931    0.3200    0.3669 N   0  0  0  0  0  0  0  0  0  0  0  0
    3.9968    0.4949    0.3775 C   0  0  0  0  0  0  0  0  0  0  0  0
    4.7126    0.9693    1.4810 C   0  0  0  0  0  0  0  0  0  0  0  0
    6.1004    1.1041    1.4126 C   0  0  0  0  0  0  0  0  0  0  0  0
    6.7673    0.7599    0.2457 C   0  0  0  0  0  0  0  0  0  0  0  0
    8.0996    0.8823    0.1880 F   0  0  0  0  0  0  0  0  0  0  0  0
    6.0788    0.2887   -0.8671 C   0  0  0  0  0  0  0  0  0  0  0  0
    4.6885    0.1640   -0.8122 C   0  0  0  0  0  0  0  0  0  0  0  0
    3.8976   -0.2837   -1.8439 O   0  0  0  0  0  0  0  0  0  0  0  0
    4.5007   -0.3664   -3.1255 C   0  0  0  0  0  0  0  0  0  0  0  0
    3.5118   -0.6417   -4.0118 F   0  0  0  0  0  0  0  0  0  0  0  0
    5.3491   -1.4219   -3.1474 F   0  0  0  0  0  0  0  0  0  0  0  0
   -2.6604   -0.7103   -0.9368 C   0  0  0  0  0  0  0  0  0  0  0  0
   -2.2612   -1.1743   -2.0081 O   0  0  0  0  0  0  0  0  0  0  0  0
   -4.0286   -0.6100   -0.6766 N   0  0  0  0  0  0  0  0  0  0  0  0
   -4.9732   -1.2242   -1.6079 C   0  0  0  0  0  0  0  0  0  0  0  0
   -6.2282   -1.6990   -0.8705 C   0  0  0  0  0  0  0  0  0  0  0  0
   -6.9207   -0.6572   -0.1684 O   0  0  0  0  0  0  0  0  0  0  0  0
   -6.0976    0.4677    0.1635 C   0  0  0  0  0  0  0  0  0  0  0  0
   -4.6365    0.1013    0.4522 C   0  0  0  0  0  0  0  0  0  0  0  0
   -1.7197    0.6392    3.7226 H   0  0  0  0  0  0  0  0  0  0  0  0
   -0.3608    1.7436    3.3786 H   0  0  0  0  0  0  0  0  0  0  0  0
   -0.0497    0.0208    3.8239 H   0  0  0  0  0  0  0  0  0  0  0  0
    0.2130   -0.3273   -1.1121 H   0  0  0  0  0  0  0  0  0  0  0  0
    2.2401   -0.0577   -0.5037 H   0  0  0  0  0  0  0  0  0  0  0  0
    4.2242    1.2397    2.4116 H   0  0  0  0  0  0  0  0  0  0  0  0
    6.6619    1.4690    2.2674 H   0  0  0  0  0  0  0  0  0  0  0  0
    6.6655    0.0161   -1.7370 H   0  0  0  0  0  0  0  0  0  0  0  0
    5.0066    0.5555   -3.4324 H   0  0  0  0  0  0  0  0  0  0  0  0
   -4.5050   -2.0633   -2.1324 H   0  0  0  0  0  0  0  0  0  0  0  0
   -5.2316   -0.4585   -2.3486 H   0  0  0  0  0  0  0  0  0  0  0  0
   -5.9649   -2.4679   -0.1348 H   0  0  0  0  0  0  0  0  0  0  0  0
   -6.9354   -2.1481   -1.5749 H   0  0  0  0  0  0  0  0  0  0  0  0
   -6.1529    1.1762   -0.6715 H   0  0  0  0  0  0  0  0  0  0  0  0
   -6.5429    0.9581    1.0350 H   0  0  0  0  0  0  0  0  0  0  0  0
   -4.5873   -0.5697    1.3169 H   0  0  0  0  0  0  0  0  0  0  0  0
   -4.0785    1.0179    0.6611 H   0  0  0  0  0  0  0  0  0  0  0  0
  1  2  1  0
  2  3  1  0
  3  4  2  0
  4  5  1  0
  5  6  2  0
  6  7  1  0
  7  8  2  0
  7  9  1  0
  9 10  1  0
 10 11  2  0
 11 12  1  0
 12 13  2  0
 13 14  1  0
 13 15  1  0
 15 16  2  0
 16 17  1  0
 17 18  1  0
 18 19  1  0
 18 20  1  0
  4 21  1  0
 21 22  2  0
 21 23  1  0
 23 24  1  0
 24 25  1  0
 25 26  1  0
 26 27  1  0
 27 28  1  0
  6  2  1  0
 16 10  1  0
 28 23  1  0
  1 29  1  0
  1 30  1  0
  1 31  1  0
  5 32  1  0
  9 33  1  0
 11 34  1  0
 12 35  1  0
 15 36  1  0
 18 37  1  0
 24 38  1  0
 24 39  1  0
 25 40  1  0
 25 41  1  0
 27 42  1  0
 27 43  1  0
 28 44  1  0
 28 45  1  0
M  END
>  <Unnamed: 0>  (261) 
1555

>  <ID>  (261) 
TRAIN_1555

>  <Canonical_Smiles>  (261) 
Cn1nc(cc1C(=O)Nc2ccc(F)cc2OC(F)F)C(=O)N3CCOCC3

>  <Inhibition>  (261) 
9.945625

>  <TDC_conf_true_inhibitor>  (261) 
0

>  <TDC_conf_non_inhibitor>  (261) 
1

>  <split>  (261) 
1

$$$$
261
     RDKit          3D

 42 43  0  0  0  0  0  0  0  0999 V2000
   -6.3012   -1.3186   -0.7941 C   0  0  0  0  0  0  0  0  0  0  0  0
   -5.0658   -1.1387   -1.4708 O   0  0  0  0  0  0  0  0  0  0  0  0
   -3.9378   -0.9304   -0.7151 C   0  0  0  0  0  0  0  0  0  0  0  0
   -3.9277   -0.8447    0.6850 C   0  0  0  0  0  0  0  0  0  0  0  0
   -2.7321   -0.6285    1.3820 C   0  0  0  0  0  0  0  0  0  0  0  0
   -2.6390   -0.5349    2.7462 O   0  0  0  0  0  0  0  0  0  0  0  0
   -3.8383   -0.6147    3.5063 C   0  0  0  0  0  0  0  0  0  0  0  0
   -1.5377   -0.5018    0.6558 C   0  0  0  0  0  0  0  0  0  0  0  0
   -0.2568   -0.2765    1.3640 C   0  0  0  0  0  0  0  0  0  0  0  0
    0.8749   -0.1886    0.7327 N   0  0  0  0  0  0  0  0  0  0  0  0
    1.9237    0.0276    1.6377 N   0  0  0  0  0  0  0  0  0  0  0  0
    3.0708    0.1285    1.0577 C   0  0  0  0  0  0  0  0  0  0  0  0
    3.2772    0.0346   -0.2758 N   0  0  0  0  0  0  0  0  0  0  0  0
    4.5409    0.2065   -0.7506 C   0  0  0  0  0  0  0  0  0  0  0  0
    4.8332    0.2195   -1.9399 O   0  0  0  0  0  0  0  0  0  0  0  0
    5.5452    0.3420    0.3780 C   0  0  0  0  0  0  0  0  0  0  0  0
    6.4897    1.5209    0.1976 C   0  0  0  0  0  0  0  0  0  0  0  0
    5.7940    2.8376   -0.0139 C   0  0  0  0  0  0  0  0  0  0  0  0
    4.5992    3.0383   -0.1375 O   0  0  0  0  0  0  0  0  0  0  0  0
    6.6698    3.8603   -0.0714 O   0  0  0  0  0  0  0  0  0  0  0  0
    4.5569    0.3937    1.9162 S   0  0  0  0  0  0  0  0  0  0  0  0
   -1.5405   -0.5839   -0.7442 C   0  0  0  0  0  0  0  0  0  0  0  0
   -2.7349   -0.7954   -1.4354 C   0  0  0  0  0  0  0  0  0  0  0  0
   -2.8353   -0.8906   -2.8011 O   0  0  0  0  0  0  0  0  0  0  0  0
   -1.6516   -0.7102   -3.5662 C   0  0  0  0  0  0  0  0  0  0  0  0
   -6.2720   -2.1995   -0.1444 H   0  0  0  0  0  0  0  0  0  0  0  0
   -7.0746   -1.4890   -1.5492 H   0  0  0  0  0  0  0  0  0  0  0  0
   -6.5777   -0.4202   -0.2325 H   0  0  0  0  0  0  0  0  0  0  0  0
   -4.8561   -0.9483    1.2306 H   0  0  0  0  0  0  0  0  0  0  0  0
   -4.5270    0.1950    3.2439 H   0  0  0  0  0  0  0  0  0  0  0  0
   -4.3132   -1.5944    3.3902 H   0  0  0  0  0  0  0  0  0  0  0  0
   -3.5732   -0.4968    4.5614 H   0  0  0  0  0  0  0  0  0  0  0  0
   -0.2882   -0.1842    2.4646 H   0  0  0  0  0  0  0  0  0  0  0  0
    2.4731   -0.0563   -0.8762 H   0  0  0  0  0  0  0  0  0  0  0  0
    6.1253   -0.5874    0.4063 H   0  0  0  0  0  0  0  0  0  0  0  0
    7.1486    1.6093    1.0692 H   0  0  0  0  0  0  0  0  0  0  0  0
    7.1151    1.3471   -0.6867 H   0  0  0  0  0  0  0  0  0  0  0  0
    6.1092    4.6515   -0.2192 H   0  0  0  0  0  0  0  0  0  0  0  0
   -0.5997   -0.4794   -1.2731 H   0  0  0  0  0  0  0  0  0  0  0  0
   -1.2265    0.2866   -3.4083 H   0  0  0  0  0  0  0  0  0  0  0  0
   -0.9184   -1.4937   -3.3484 H   0  0  0  0  0  0  0  0  0  0  0  0
   -1.9211   -0.7926   -4.6236 H   0  0  0  0  0  0  0  0  0  0  0  0
  1  2  1  0
  2  3  1  0
  3  4  2  0
  4  5  1  0
  5  6  1  0
  6  7  1  0
  5  8  2  0
  8  9  1  0
  9 10  2  0
 10 11  1  0
 11 12  2  0
 12 13  1  0
 13 14  1  0
 14 15  2  0
 14 16  1  0
 16 17  1  0
 17 18  1  0
 18 19  2  0
 18 20  1  0
 16 21  1  0
  8 22  1  0
 22 23  2  0
 23 24  1  0
 24 25  1  0
 23  3  1  0
 21 12  1  0
  1 26  1  0
  1 27  1  0
  1 28  1  0
  4 29  1  0
  7 30  1  0
  7 31  1  0
  7 32  1  0
  9 33  1  0
 13 34  1  0
 16 35  1  0
 17 36  1  0
 17 37  1  0
 20 38  1  0
 22 39  1  0
 25 40  1  0
 25 41  1  0
 25 42  1  0
M  END
>  <Unnamed: 0>  (262) 
1557

>  <ID>  (262) 
TRAIN_1557

>  <Canonical_Smiles>  (262) 
COc1cc(OC)c(\C=N\N=C\2/NC(=O)C(CC(=O)O)S2)cc1OC

>  <Inhibition>  (262) 
20.075396

>  <TDC_conf_true_inhibitor>  (262) 
0

>  <TDC_conf_non_inhibitor>  (262) 
1

>  <split>  (262) 
1

$$$$
262
     RDKit          3D

 38 41  0  0  0  0  0  0  0  0999 V2000
    2.6345    1.6776    2.2776 N   0  0  0  0  0  0  0  0  0  0  0  0
    1.8429    1.1837    1.2963 C   0  0  0  0  0  0  0  0  0  0  0  0
    0.5575    1.4085    1.2076 N   0  0  0  0  0  0  0  0  0  0  0  0
    0.1322    0.6061    0.1843 C   0  0  0  0  0  0  0  0  0  0  0  0
    1.1130   -0.1128   -0.3686 N   0  0  0  0  0  0  0  0  0  0  0  0
    2.2288    0.3130    0.2763 N   0  0  0  0  0  0  0  0  0  0  0  0
    3.5154   -0.1395   -0.1319 C   0  0  0  0  0  0  0  0  0  0  0  0
    3.6043   -1.2054   -1.0438 C   0  0  0  0  0  0  0  0  0  0  0  0
    4.8504   -1.6769   -1.4625 C   0  0  0  0  0  0  0  0  0  0  0  0
    6.0164   -1.0832   -0.9867 C   0  0  0  0  0  0  0  0  0  0  0  0
    5.9383   -0.0109   -0.1002 C   0  0  0  0  0  0  0  0  0  0  0  0
    4.6936    0.4654    0.3245 C   0  0  0  0  0  0  0  0  0  0  0  0
   -1.1943    0.5604   -0.1947 N   0  0  0  0  0  0  0  0  0  0  0  0
   -1.6640   -0.1855   -1.2485 C   0  0  0  0  0  0  0  0  0  0  0  0
   -1.0625   -0.8199   -2.1032 O   0  0  0  0  0  0  0  0  0  0  0  0
   -3.1715   -0.1660   -1.1794 C   0  0  0  0  0  0  0  0  0  0  0  0
   -3.6335   -1.4394   -0.4590 C   0  0  0  0  0  0  0  0  0  0  0  0
   -4.8109   -1.2555    0.4429 C   0  0  0  0  0  0  0  0  0  0  0  0
   -5.3117   -0.0621    0.7811 C   0  0  0  0  0  0  0  0  0  0  0  0
   -4.7540    1.2423    0.3058 C   0  0  0  0  0  0  0  0  0  0  0  0
   -3.4232    1.1361   -0.4290 C   0  0  0  0  0  0  0  0  0  0  0  0
   -2.1957    1.2505    0.4470 C   0  0  0  0  0  0  0  0  0  0  0  0
   -2.1662    1.8971    1.4831 O   0  0  0  0  0  0  0  0  0  0  0  0
    3.3001    1.0336    2.6973 H   0  0  0  0  0  0  0  0  0  0  0  0
    2.1018    2.1507    3.0067 H   0  0  0  0  0  0  0  0  0  0  0  0
    2.7085   -1.6865   -1.4355 H   0  0  0  0  0  0  0  0  0  0  0  0
    4.9070   -2.5055   -2.1642 H   0  0  0  0  0  0  0  0  0  0  0  0
    6.9858   -1.4474   -1.3175 H   0  0  0  0  0  0  0  0  0  0  0  0
    6.8500    0.4669    0.2508 H   0  0  0  0  0  0  0  0  0  0  0  0
    4.6861    1.3359    0.9726 H   0  0  0  0  0  0  0  0  0  0  0  0
   -3.5970   -0.1078   -2.1874 H   0  0  0  0  0  0  0  0  0  0  0  0
   -2.8234   -1.8830    0.1345 H   0  0  0  0  0  0  0  0  0  0  0  0
   -3.8887   -2.1900   -1.2180 H   0  0  0  0  0  0  0  0  0  0  0  0
   -5.2709   -2.1572    0.8433 H   0  0  0  0  0  0  0  0  0  0  0  0
   -6.1775   -0.0151    1.4392 H   0  0  0  0  0  0  0  0  0  0  0  0
   -5.4966    1.6805   -0.3732 H   0  0  0  0  0  0  0  0  0  0  0  0
   -4.6745    1.9249    1.1595 H   0  0  0  0  0  0  0  0  0  0  0  0
   -3.3504    1.9837   -1.1270 H   0  0  0  0  0  0  0  0  0  0  0  0
  1  2  1  0
  2  3  2  0
  3  4  1  0
  4  5  2  0
  5  6  1  0
  6  7  1  0
  7  8  2  0
  8  9  1  0
  9 10  2  0
 10 11  1  0
 11 12  2  0
  4 13  1  0
 13 14  1  0
 14 15  2  0
 14 16  1  0
 16 17  1  0
 17 18  1  0
 18 19  2  0
 19 20  1  0
 20 21  1  0
 21 22  1  0
 22 23  2  0
  6  2  1  0
 12  7  1  0
 22 13  1  0
 21 16  1  0
  1 24  1  0
  1 25  1  0
  8 26  1  0
  9 27  1  0
 10 28  1  0
 11 29  1  0
 12 30  1  0
 16 31  1  0
 17 32  1  0
 17 33  1  0
 18 34  1  0
 19 35  1  0
 20 36  1  0
 20 37  1  0
 21 38  1  0
M  END
>  <Unnamed: 0>  (263) 
1572

>  <ID>  (263) 
TRAIN_1572

>  <Canonical_Smiles>  (263) 
Nc1nc(nn1c2ccccc2)N3C(=O)C4CC=CCC4C3=O

>  <Inhibition>  (263) 
8.130223

>  <TDC_conf_true_inhibitor>  (263) 
0

>  <TDC_conf_non_inhibitor>  (263) 
1

>  <split>  (263) 
1

$$$$
263
     RDKit          3D

 35 35  0  0  0  0  0  0  0  0999 V2000
    3.3301   -0.4239   -3.8089 C   0  0  0  0  0  0  0  0  0  0  0  0
    2.7250   -0.2822   -2.4504 C   0  0  0  0  0  0  0  0  0  0  0  0
    2.0210    0.7460   -1.9502 C   0  0  0  0  0  0  0  0  0  0  0  0
    1.7267    1.9500   -2.6281 C   0  0  0  0  0  0  0  0  0  0  0  0
    1.4774    2.9313   -3.1915 N   0  0  0  0  0  0  0  0  0  0  0  0
    1.6259    0.4760   -0.5155 C   0  0  0  0  0  0  0  0  0  0  0  0
    0.1690    0.3106   -0.4741 N   0  0  0  0  0  0  0  0  0  0  0  0
   -0.5266    0.2767    0.6914 C   0  0  0  0  0  0  0  0  0  0  0  0
   -0.0849    0.6003    1.7767 O   0  0  0  0  0  0  0  0  0  0  0  0
   -1.7689   -0.1812    0.4306 O   0  0  0  0  0  0  0  0  0  0  0  0
   -2.7443   -0.3227    1.4970 C   0  0  0  0  0  0  0  0  0  0  0  0
   -4.0063   -0.8567    0.8024 C   0  0  0  0  0  0  0  0  0  0  0  0
   -3.0723    1.0317    2.1352 C   0  0  0  0  0  0  0  0  0  0  0  0
   -2.2855   -1.3508    2.5370 C   0  0  0  0  0  0  0  0  0  0  0  0
    2.2904   -0.8760   -0.4818 C   0  0  0  0  0  0  0  0  0  0  0  0
    2.8849   -1.3066   -1.5475 N   0  0  0  0  0  0  0  0  0  0  0  0
    2.2025   -1.6533    0.5904 O   0  0  0  0  0  0  0  0  0  0  0  0
    2.3394    1.4231    0.4626 C   0  0  0  0  0  0  0  0  0  0  0  0
    1.7030    2.6177    0.5363 F   0  0  0  0  0  0  0  0  0  0  0  0
    2.4639    0.9384    1.7140 F   0  0  0  0  0  0  0  0  0  0  0  0
    3.6036    1.6951    0.0375 F   0  0  0  0  0  0  0  0  0  0  0  0
    2.9171   -1.3018   -4.3162 H   0  0  0  0  0  0  0  0  0  0  0  0
    4.4144   -0.5515   -3.7278 H   0  0  0  0  0  0  0  0  0  0  0  0
    3.1425    0.4472   -4.4435 H   0  0  0  0  0  0  0  0  0  0  0  0
   -0.3015   -0.1716   -1.2290 H   0  0  0  0  0  0  0  0  0  0  0  0
   -4.3447   -0.1640    0.0229 H   0  0  0  0  0  0  0  0  0  0  0  0
   -4.8276   -1.0083    1.5106 H   0  0  0  0  0  0  0  0  0  0  0  0
   -3.8012   -1.8097    0.3008 H   0  0  0  0  0  0  0  0  0  0  0  0
   -3.9216    0.9529    2.8224 H   0  0  0  0  0  0  0  0  0  0  0  0
   -3.3132    1.7752    1.3671 H   0  0  0  0  0  0  0  0  0  0  0  0
   -2.2274    1.4310    2.7042 H   0  0  0  0  0  0  0  0  0  0  0  0
   -3.0851   -1.5809    3.2494 H   0  0  0  0  0  0  0  0  0  0  0  0
   -1.9725   -2.2819    2.0514 H   0  0  0  0  0  0  0  0  0  0  0  0
   -1.4268   -0.9940    3.1137 H   0  0  0  0  0  0  0  0  0  0  0  0
    2.6737   -2.4861    0.4110 H   0  0  0  0  0  0  0  0  0  0  0  0
  1  2  1  0
  2  3  2  0
  3  4  1  0
  4  5  3  0
  3  6  1  0
  6  7  1  0
  7  8  1  0
  8  9  2  0
  8 10  1  0
 10 11  1  0
 11 12  1  0
 11 13  1  0
 11 14  1  0
  6 15  1  0
 15 16  2  0
 15 17  1  0
  6 18  1  0
 18 19  1  0
 18 20  1  0
 18 21  1  0
 16  2  1  0
  1 22  1  0
  1 23  1  0
  1 24  1  0
  7 25  1  0
 12 26  1  0
 12 27  1  0
 12 28  1  0
 13 29  1  0
 13 30  1  0
 13 31  1  0
 14 32  1  0
 14 33  1  0
 14 34  1  0
 17 35  1  0
M  END
>  <Unnamed: 0>  (264) 
1574

>  <ID>  (264) 
TRAIN_1574

>  <Canonical_Smiles>  (264) 
CC1=C(C#N)C(NC(=O)OC(C)(C)C)(C(=N1)O)C(F)(F)F

>  <Inhibition>  (264) 
30.139152

>  <TDC_conf_true_inhibitor>  (264) 
0

>  <TDC_conf_non_inhibitor>  (264) 
1

>  <split>  (264) 
1

$$$$
264
     RDKit          3D

 53 56  0  0  0  0  0  0  0  0999 V2000
   -4.3097   -0.8438   -3.2815 C   0  0  0  0  0  0  0  0  0  0  0  0
   -4.2971   -0.4088   -1.9288 O   0  0  0  0  0  0  0  0  0  0  0  0
   -3.0819   -0.0889   -1.3813 C   0  0  0  0  0  0  0  0  0  0  0  0
   -1.8804   -0.0301   -2.0859 C   0  0  0  0  0  0  0  0  0  0  0  0
   -0.6910    0.3233   -1.4368 C   0  0  0  0  0  0  0  0  0  0  0  0
   -0.6629    0.6009   -0.0593 C   0  0  0  0  0  0  0  0  0  0  0  0
    0.6225    1.0142    0.6631 C   0  0  0  0  0  0  0  0  0  0  0  0
    0.7385    2.5501    0.6830 C   0  0  0  0  0  0  0  0  0  0  0  0
    1.3506    3.0354   -0.6008 C   0  0  0  0  0  0  0  0  0  0  0  0
    2.2527    2.4614   -1.3261 N   0  0  0  0  0  0  0  0  0  0  0  0
    2.6447    1.2121   -0.8356 C   0  0  0  0  0  0  0  0  0  0  0  0
    3.8209    0.5169   -1.1583 C   0  0  0  0  0  0  0  0  0  0  0  0
    3.7647   -0.6357   -0.3885 C   0  0  0  0  0  0  0  0  0  0  0  0
    2.5991   -0.6756    0.3649 N   0  0  0  0  0  0  0  0  0  0  0  0
    1.8928    0.4802    0.0608 C   0  0  0  0  0  0  0  0  0  0  0  0
    2.2786   -1.7318    1.2738 C   0  0  0  0  0  0  0  0  0  0  0  0
    0.9584   -2.0424    1.6097 C   0  0  0  0  0  0  0  0  0  0  0  0
    0.6866   -3.0755    2.5079 C   0  0  0  0  0  0  0  0  0  0  0  0
   -0.5869   -3.3548    2.8153 F   0  0  0  0  0  0  0  0  0  0  0  0
    1.7029   -3.8222    3.0802 C   0  0  0  0  0  0  0  0  0  0  0  0
    3.0109   -3.5262    2.7357 C   0  0  0  0  0  0  0  0  0  0  0  0
    4.0103   -4.2339    3.2779 F   0  0  0  0  0  0  0  0  0  0  0  0
    3.3103   -2.4987    1.8411 C   0  0  0  0  0  0  0  0  0  0  0  0
    4.9126    0.8354   -2.0559 C   0  0  0  0  0  0  0  0  0  0  0  0
    5.8987    0.1320   -2.2341 O   0  0  0  0  0  0  0  0  0  0  0  0
    4.7995    2.0001   -2.7281 O   0  0  0  0  0  0  0  0  0  0  0  0
    0.9242    4.2460   -0.9891 O   0  0  0  0  0  0  0  0  0  0  0  0
   -1.8756    0.5226    0.6548 C   0  0  0  0  0  0  0  0  0  0  0  0
   -1.8232    0.8191    1.9965 O   0  0  0  0  0  0  0  0  0  0  0  0
   -2.4147   -0.1868    2.8215 C   0  0  0  0  0  0  0  0  0  0  0  0
   -3.0768    0.2213   -0.0121 C   0  0  0  0  0  0  0  0  0  0  0  0
   -4.2626    0.1953    0.6859 O   0  0  0  0  0  0  0  0  0  0  0  0
   -4.8875    1.4776    0.6167 C   0  0  0  0  0  0  0  0  0  0  0  0
   -4.0070   -0.0365   -3.9563 H   0  0  0  0  0  0  0  0  0  0  0  0
   -5.3380   -1.1196   -3.5343 H   0  0  0  0  0  0  0  0  0  0  0  0
   -3.6837   -1.7317   -3.4195 H   0  0  0  0  0  0  0  0  0  0  0  0
   -1.8303   -0.2375   -3.1500 H   0  0  0  0  0  0  0  0  0  0  0  0
    0.2151    0.3800   -2.0373 H   0  0  0  0  0  0  0  0  0  0  0  0
    0.5750    0.6820    1.7069 H   0  0  0  0  0  0  0  0  0  0  0  0
    1.4121    2.8655    1.4904 H   0  0  0  0  0  0  0  0  0  0  0  0
   -0.2291    3.0360    0.8504 H   0  0  0  0  0  0  0  0  0  0  0  0
    4.4748   -1.4519   -0.3619 H   0  0  0  0  0  0  0  0  0  0  0  0
    0.1070   -1.5502    1.1632 H   0  0  0  0  0  0  0  0  0  0  0  0
    1.4798   -4.6220    3.7757 H   0  0  0  0  0  0  0  0  0  0  0  0
    4.3603   -2.3043    1.6429 H   0  0  0  0  0  0  0  0  0  0  0  0
    5.6158    2.0292   -3.2642 H   0  0  0  0  0  0  0  0  0  0  0  0
    1.4018    4.4677   -1.8069 H   0  0  0  0  0  0  0  0  0  0  0  0
   -2.3817   -1.1849    2.3699 H   0  0  0  0  0  0  0  0  0  0  0  0
   -1.8440   -0.2255    3.7545 H   0  0  0  0  0  0  0  0  0  0  0  0
   -3.4422    0.0909    3.0731 H   0  0  0  0  0  0  0  0  0  0  0  0
   -5.8151    1.4279    1.1948 H   0  0  0  0  0  0  0  0  0  0  0  0
   -5.1461    1.7434   -0.4140 H   0  0  0  0  0  0  0  0  0  0  0  0
   -4.2539    2.2529    1.0616 H   0  0  0  0  0  0  0  0  0  0  0  0
  1  2  1  0
  2  3  1  0
  3  4  2  0
  4  5  1  0
  5  6  2  0
  6  7  1  0
  7  8  1  0
  8  9  1  0
  9 10  2  0
 10 11  1  0
 11 12  1  0
 12 13  2  0
 13 14  1  0
 14 15  1  0
 14 16  1  0
 16 17  2  0
 17 18  1  0
 18 19  1  0
 18 20  2  0
 20 21  1  0
 21 22  1  0
 21 23  2  0
 12 24  1  0
 24 25  2  0
 24 26  1  0
  9 27  1  0
  6 28  1  0
 28 29  1  0
 29 30  1  0
 28 31  2  0
 31 32  1  0
 32 33  1  0
 31  3  1  0
 15  7  1  0
 15 11  2  0
 23 16  1  0
  1 34  1  0
  1 35  1  0
  1 36  1  0
  4 37  1  0
  5 38  1  0
  7 39  1  0
  8 40  1  0
  8 41  1  0
 13 42  1  0
 17 43  1  0
 20 44  1  0
 23 45  1  0
 26 46  1  0
 27 47  1  0
 30 48  1  0
 30 49  1  0
 30 50  1  0
 33 51  1  0
 33 52  1  0
 33 53  1  0
M  END
>  <Unnamed: 0>  (265) 
1580

>  <ID>  (265) 
TRAIN_1580

>  <Canonical_Smiles>  (265) 
COc1ccc(C2CC(=Nc3c(cn(c23)c4cc(F)cc(F)c4)C(=O)O)O)c(OC)c1OC

>  <Inhibition>  (265) 
19.42741

>  <TDC_conf_true_inhibitor>  (265) 
0

>  <TDC_conf_non_inhibitor>  (265) 
1

>  <split>  (265) 
1

$$$$
265
     RDKit          3D

 38 40  0  0  0  0  0  0  0  0999 V2000
    6.0911    1.8336   -0.2747 C   0  0  0  0  0  0  0  0  0  0  0  0
    5.6511    0.9339    0.8685 C   0  0  0  0  0  0  0  0  0  0  0  0
    4.5821   -0.0023    0.4421 C   0  0  0  0  0  0  0  0  0  0  0  0
    3.2860    0.2015    0.4388 N   0  0  0  0  0  0  0  0  0  0  0  0
    2.7431   -0.9641   -0.0463 C   0  0  0  0  0  0  0  0  0  0  0  0
    3.6803   -1.8865   -0.3416 N   0  0  0  0  0  0  0  0  0  0  0  0
    4.8198   -1.2570   -0.0261 N   0  0  0  0  0  0  0  0  0  0  0  0
    1.3624   -1.1441   -0.2051 N   0  0  0  0  0  0  0  0  0  0  0  0
    0.9546   -2.3724   -0.7048 C   0  0  0  0  0  0  0  0  0  0  0  0
   -0.3342   -2.6690   -0.9036 C   0  0  0  0  0  0  0  0  0  0  0  0
   -1.3454   -1.6763   -0.5874 C   0  0  0  0  0  0  0  0  0  0  0  0
   -2.6303   -2.0365   -0.8129 N   0  0  0  0  0  0  0  0  0  0  0  0
   -3.6097   -1.1295   -0.5281 C   0  0  0  0  0  0  0  0  0  0  0  0
   -5.0082   -1.6046   -0.8005 C   0  0  0  0  0  0  0  0  0  0  0  0
   -3.3251    0.1429   -0.0151 C   0  0  0  0  0  0  0  0  0  0  0  0
   -1.9826    0.4841    0.2045 C   0  0  0  0  0  0  0  0  0  0  0  0
   -0.9773   -0.4403   -0.0855 C   0  0  0  0  0  0  0  0  0  0  0  0
    0.4593   -0.1270    0.1269 C   0  0  0  0  0  0  0  0  0  0  0  0
    0.7115    0.9901    0.5708 O   0  0  0  0  0  0  0  0  0  0  0  0
   -4.4046    1.1209    0.2745 C   0  0  0  0  0  0  0  0  0  0  0  0
   -5.4934    1.1334   -0.2731 O   0  0  0  0  0  0  0  0  0  0  0  0
   -3.9997    1.9720    1.2505 O   0  0  0  0  0  0  0  0  0  0  0  0
   -4.9735    2.9529    1.6121 C   0  0  0  0  0  0  0  0  0  0  0  0
    6.8715    2.5228    0.0633 H   0  0  0  0  0  0  0  0  0  0  0  0
    6.4927    1.2476   -1.1085 H   0  0  0  0  0  0  0  0  0  0  0  0
    5.2536    2.4283   -0.6556 H   0  0  0  0  0  0  0  0  0  0  0  0
    6.5139    0.3755    1.2496 H   0  0  0  0  0  0  0  0  0  0  0  0
    5.2808    1.5513    1.6949 H   0  0  0  0  0  0  0  0  0  0  0  0
    5.7050   -1.7337   -0.1546 H   0  0  0  0  0  0  0  0  0  0  0  0
    1.7169   -3.1114   -0.9398 H   0  0  0  0  0  0  0  0  0  0  0  0
   -0.6567   -3.6265   -1.2942 H   0  0  0  0  0  0  0  0  0  0  0  0
   -5.6340   -1.5018    0.0913 H   0  0  0  0  0  0  0  0  0  0  0  0
   -5.4470   -1.0476   -1.6335 H   0  0  0  0  0  0  0  0  0  0  0  0
   -5.0075   -2.6647   -1.0770 H   0  0  0  0  0  0  0  0  0  0  0  0
   -1.7114    1.4645    0.5914 H   0  0  0  0  0  0  0  0  0  0  0  0
   -4.5435    3.5846    2.3943 H   0  0  0  0  0  0  0  0  0  0  0  0
   -5.2191    3.5842    0.7524 H   0  0  0  0  0  0  0  0  0  0  0  0
   -5.8722    2.4713    2.0098 H   0  0  0  0  0  0  0  0  0  0  0  0
  1  2  1  0
  2  3  1  0
  3  4  2  0
  4  5  1  0
  5  6  2  0
  6  7  1  0
  5  8  1  0
  8  9  1  0
  9 10  2  0
 10 11  1  0
 11 12  2  0
 12 13  1  0
 13 14  1  0
 13 15  2  0
 15 16  1  0
 16 17  2  0
 17 18  1  0
 18 19  2  0
 15 20  1  0
 20 21  2  0
 20 22  1  0
 22 23  1  0
  7  3  1  0
 18  8  1  0
 17 11  1  0
  1 24  1  0
  1 25  1  0
  1 26  1  0
  2 27  1  0
  2 28  1  0
  7 29  1  0
  9 30  1  0
 10 31  1  0
 14 32  1  0
 14 33  1  0
 14 34  1  0
 16 35  1  0
 23 36  1  0
 23 37  1  0
 23 38  1  0
M  END
>  <Unnamed: 0>  (266) 
1603

>  <ID>  (266) 
TRAIN_1603

>  <Canonical_Smiles>  (266) 
CCc1nc(n[nH]1)N2C=Cc3nc(C)c(cc3C2=O)C(=O)OC

>  <Inhibition>  (266) 
9.658982

>  <TDC_conf_true_inhibitor>  (266) 
0

>  <TDC_conf_non_inhibitor>  (266) 
1

>  <split>  (266) 
1

$$$$
266
     RDKit          3D

 39 41  0  0  0  0  0  0  0  0999 V2000
    4.3643    0.4728    1.9283 C   0  0  0  0  0  0  0  0  0  0  0  0
    3.7248   -0.3901    0.9401 N   0  0  0  0  0  0  0  0  0  0  0  0
    3.2958    0.3602   -0.2563 C   0  0  0  0  0  0  0  0  0  0  0  0
    1.8384    0.8729   -0.2227 C   0  0  0  0  0  0  0  0  0  0  0  0
    0.8398   -0.1503    0.1382 N   0  0  0  0  0  0  0  0  0  0  0  0
    1.4442   -1.4204    0.5719 C   0  0  0  0  0  0  0  0  0  0  0  0
    2.6103   -1.1481    1.5435 C   0  0  0  0  0  0  0  0  0  0  0  0
   -0.2054   -0.3136   -0.8106 N   0  0  0  0  0  0  0  0  0  0  0  0
    0.0931   -0.7461   -2.1126 C   0  0  0  0  0  0  0  0  0  0  0  0
    1.2145   -1.0064   -2.5481 O   0  0  0  0  0  0  0  0  0  0  0  0
   -0.9918   -0.8715   -2.9432 N   0  0  0  0  0  0  0  0  0  0  0  0
   -2.2979   -0.5996   -2.6373 C   0  0  0  0  0  0  0  0  0  0  0  0
   -3.4380   -0.8737   -3.8380 S   0  0  0  0  0  0  0  0  0  0  0  0
   -2.5443   -0.0909   -1.2526 C   0  0  0  0  0  0  0  0  0  0  0  0
   -1.4995    0.0047   -0.4010 C   0  0  0  0  0  0  0  0  0  0  0  0
   -1.6971    0.4686    1.0339 C   0  0  0  0  0  0  0  0  0  0  0  0
   -3.1552    0.5042    1.4912 C   0  0  0  0  0  0  0  0  0  0  0  0
   -4.0378    1.1175    0.4198 C   0  0  0  0  0  0  0  0  0  0  0  0
   -3.9521    0.3067   -0.8720 C   0  0  0  0  0  0  0  0  0  0  0  0
    5.2550    0.9492    1.5041 H   0  0  0  0  0  0  0  0  0  0  0  0
    3.6919    1.2595    2.2889 H   0  0  0  0  0  0  0  0  0  0  0  0
    4.7037   -0.1141    2.7891 H   0  0  0  0  0  0  0  0  0  0  0  0
    3.4071   -0.3119   -1.1168 H   0  0  0  0  0  0  0  0  0  0  0  0
    3.9753    1.1975   -0.4595 H   0  0  0  0  0  0  0  0  0  0  0  0
    1.6083    1.3522   -1.1824 H   0  0  0  0  0  0  0  0  0  0  0  0
    1.7688    1.6684    0.5298 H   0  0  0  0  0  0  0  0  0  0  0  0
    0.6878   -2.0224    1.0895 H   0  0  0  0  0  0  0  0  0  0  0  0
    1.8067   -2.0179   -0.2732 H   0  0  0  0  0  0  0  0  0  0  0  0
    3.0021   -2.1030    1.9126 H   0  0  0  0  0  0  0  0  0  0  0  0
    2.2016   -0.6172    2.4149 H   0  0  0  0  0  0  0  0  0  0  0  0
   -0.7823   -1.2021   -3.8741 H   0  0  0  0  0  0  0  0  0  0  0  0
   -1.1616   -0.1873    1.7307 H   0  0  0  0  0  0  0  0  0  0  0  0
   -1.2688    1.4744    1.1351 H   0  0  0  0  0  0  0  0  0  0  0  0
   -3.2361    1.0768    2.4220 H   0  0  0  0  0  0  0  0  0  0  0  0
   -3.4985   -0.5145    1.7126 H   0  0  0  0  0  0  0  0  0  0  0  0
   -5.0778    1.1578    0.7626 H   0  0  0  0  0  0  0  0  0  0  0  0
   -3.7235    2.1518    0.2305 H   0  0  0  0  0  0  0  0  0  0  0  0
   -4.4112    0.9101   -1.6635 H   0  0  0  0  0  0  0  0  0  0  0  0
   -4.5541   -0.6042   -0.7613 H   0  0  0  0  0  0  0  0  0  0  0  0
  1  2  1  0
  2  3  1  0
  3  4  1  0
  4  5  1  0
  5  6  1  0
  6  7  1  0
  5  8  1  0
  8  9  1  0
  9 10  2  0
  9 11  1  0
 11 12  1  0
 12 13  2  0
 12 14  1  0
 14 15  2  0
 15 16  1  0
 16 17  1  0
 17 18  1  0
 18 19  1  0
  7  2  1  0
 15  8  1  0
 19 14  1  0
  1 20  1  0
  1 21  1  0
  1 22  1  0
  3 23  1  0
  3 24  1  0
  4 25  1  0
  4 26  1  0
  6 27  1  0
  6 28  1  0
  7 29  1  0
  7 30  1  0
 11 31  1  0
 16 32  1  0
 16 33  1  0
 17 34  1  0
 17 35  1  0
 18 36  1  0
 18 37  1  0
 19 38  1  0
 19 39  1  0
M  END
>  <Unnamed: 0>  (267) 
1608

>  <ID>  (267) 
TRAIN_1608

>  <Canonical_Smiles>  (267) 
CN1CCN(CC1)N2C(=O)NC(=S)C3=C2CCCC3

>  <Inhibition>  (267) 
0.5

>  <TDC_conf_true_inhibitor>  (267) 
0

>  <TDC_conf_non_inhibitor>  (267) 
1

>  <split>  (267) 
1

$$$$
267
     RDKit          3D

 43 44  0  0  0  0  0  0  0  0999 V2000
    5.6180    0.1952    0.8833 C   0  0  0  0  0  0  0  0  0  0  0  0
    4.4592   -0.4638    0.3893 O   0  0  0  0  0  0  0  0  0  0  0  0
    3.5741   -0.8963    1.4356 C   0  0  0  0  0  0  0  0  0  0  0  0
    2.6316    0.2354    1.8703 C   0  0  0  0  0  0  0  0  0  0  0  0
    1.8402    0.7086    0.7302 N   0  0  0  0  0  0  0  0  0  0  0  0
    0.6828    0.0582    0.4608 C   0  0  0  0  0  0  0  0  0  0  0  0
    0.0679   -0.8217    1.2227 N   0  0  0  0  0  0  0  0  0  0  0  0
   -1.0349   -1.1883    0.5185 C   0  0  0  0  0  0  0  0  0  0  0  0
   -1.9794   -2.0997    0.9270 N   0  0  0  0  0  0  0  0  0  0  0  0
   -1.8359   -2.7727    2.2046 C   0  0  0  0  0  0  0  0  0  0  0  0
   -3.0672   -2.3723    0.0989 C   0  0  0  0  0  0  0  0  0  0  0  0
   -3.9233   -3.2080    0.4048 O   0  0  0  0  0  0  0  0  0  0  0  0
   -3.1453   -1.6601   -1.1129 N   0  0  0  0  0  0  0  0  0  0  0  0
   -4.2725   -1.9576   -1.9745 C   0  0  0  0  0  0  0  0  0  0  0  0
   -2.1656   -0.7927   -1.6121 C   0  0  0  0  0  0  0  0  0  0  0  0
   -2.1944   -0.3223   -2.7460 O   0  0  0  0  0  0  0  0  0  0  0  0
   -1.1122   -0.5546   -0.6842 C   0  0  0  0  0  0  0  0  0  0  0  0
   -0.0230    0.2778   -0.7101 N   0  0  0  0  0  0  0  0  0  0  0  0
    0.2989    1.2618   -1.7284 C   0  0  0  0  0  0  0  0  0  0  0  0
   -0.0969    2.6758   -1.3094 C   0  0  0  0  0  0  0  0  0  0  0  0
   -1.5205    2.8024   -1.3159 O   0  0  0  0  0  0  0  0  0  0  0  0
   -1.9376    4.0928   -0.8916 C   0  0  0  0  0  0  0  0  0  0  0  0
    6.1944   -0.4752    1.5280 H   0  0  0  0  0  0  0  0  0  0  0  0
    5.3506    1.1047    1.4275 H   0  0  0  0  0  0  0  0  0  0  0  0
    6.2414    0.4750    0.0298 H   0  0  0  0  0  0  0  0  0  0  0  0
    2.9918   -1.7313    1.0314 H   0  0  0  0  0  0  0  0  0  0  0  0
    4.1473   -1.2779    2.2884 H   0  0  0  0  0  0  0  0  0  0  0  0
    3.2169    1.0865    2.2331 H   0  0  0  0  0  0  0  0  0  0  0  0
    1.9976   -0.0894    2.7035 H   0  0  0  0  0  0  0  0  0  0  0  0
    2.4540    0.9157   -0.0555 H   0  0  0  0  0  0  0  0  0  0  0  0
   -1.7936   -2.0236    3.0016 H   0  0  0  0  0  0  0  0  0  0  0  0
   -0.9086   -3.3544    2.1984 H   0  0  0  0  0  0  0  0  0  0  0  0
   -2.6708   -3.4491    2.4065 H   0  0  0  0  0  0  0  0  0  0  0  0
   -4.4422   -1.1640   -2.7077 H   0  0  0  0  0  0  0  0  0  0  0  0
   -5.1839   -2.0848   -1.3823 H   0  0  0  0  0  0  0  0  0  0  0  0
   -4.0638   -2.8931   -2.5032 H   0  0  0  0  0  0  0  0  0  0  0  0
   -0.1984    0.9781   -2.6585 H   0  0  0  0  0  0  0  0  0  0  0  0
    1.3769    1.2026   -1.9117 H   0  0  0  0  0  0  0  0  0  0  0  0
    0.3198    3.3903   -2.0286 H   0  0  0  0  0  0  0  0  0  0  0  0
    0.2895    2.9182   -0.3129 H   0  0  0  0  0  0  0  0  0  0  0  0
   -1.5377    4.8632   -1.5577 H   0  0  0  0  0  0  0  0  0  0  0  0
   -3.0295    4.1311   -0.9282 H   0  0  0  0  0  0  0  0  0  0  0  0
   -1.6158    4.2796    0.1374 H   0  0  0  0  0  0  0  0  0  0  0  0
  1  2  1  0
  2  3  1  0
  3  4  1  0
  4  5  1  0
  5  6  1  0
  6  7  2  0
  7  8  1  0
  8  9  1  0
  9 10  1  0
  9 11  1  0
 11 12  2  0
 11 13  1  0
 13 14  1  0
 13 15  1  0
 15 16  2  0
 15 17  1  0
 17 18  1  0
 18 19  1  0
 19 20  1  0
 20 21  1  0
 21 22  1  0
 18  6  1  0
 17  8  2  0
  1 23  1  0
  1 24  1  0
  1 25  1  0
  3 26  1  0
  3 27  1  0
  4 28  1  0
  4 29  1  0
  5 30  1  0
 10 31  1  0
 10 32  1  0
 10 33  1  0
 14 34  1  0
 14 35  1  0
 14 36  1  0
 19 37  1  0
 19 38  1  0
 20 39  1  0
 20 40  1  0
 22 41  1  0
 22 42  1  0
 22 43  1  0
M  END
>  <Unnamed: 0>  (268) 
1609

>  <ID>  (268) 
TRAIN_1609

>  <Canonical_Smiles>  (268) 
COCCNc1nc2N(C)C(=O)N(C)C(=O)c2n1CCOC

>  <Inhibition>  (268) 
11.52129

>  <TDC_conf_true_inhibitor>  (268) 
0

>  <TDC_conf_non_inhibitor>  (268) 
1

>  <split>  (268) 
1

$$$$
268
     RDKit          3D

 58 61  0  0  0  0  0  0  0  0999 V2000
   -5.3011   -3.2676   -2.7533 C   0  0  0  0  0  0  0  0  0  0  0  0
   -5.8839   -2.5507   -1.6741 O   0  0  0  0  0  0  0  0  0  0  0  0
   -5.0944   -1.6357   -1.0240 C   0  0  0  0  0  0  0  0  0  0  0  0
   -3.7346   -1.4294   -1.2849 C   0  0  0  0  0  0  0  0  0  0  0  0
   -3.0068   -0.4704   -0.5443 C   0  0  0  0  0  0  0  0  0  0  0  0
   -1.6585   -0.0313   -0.5910 C   0  0  0  0  0  0  0  0  0  0  0  0
   -1.4758    0.9688    0.3528 C   0  0  0  0  0  0  0  0  0  0  0  0
   -0.2944    1.7727    0.6228 C   0  0  0  0  0  0  0  0  0  0  0  0
   -0.3187    2.8327    1.2412 O   0  0  0  0  0  0  0  0  0  0  0  0
    0.8792    1.2561    0.1336 N   0  0  0  0  0  0  0  0  0  0  0  0
    2.1705    1.9080    0.3402 C   0  0  0  0  0  0  0  0  0  0  0  0
    2.3872    3.0264   -0.6713 C   0  0  0  0  0  0  0  0  0  0  0  0
    3.2898    0.8577    0.2053 C   0  0  0  0  0  0  0  0  0  0  0  0
    3.0795   -0.2284   -0.3425 O   0  0  0  0  0  0  0  0  0  0  0  0
    4.4864    1.2533    0.7560 N   0  0  0  0  0  0  0  0  0  0  0  0
    5.5560    0.6339    0.3875 C   0  0  0  0  0  0  0  0  0  0  0  0
    6.8164    0.9194    0.9119 N   0  0  0  0  0  0  0  0  0  0  0  0
    7.6886   -0.1190    0.5663 C   0  0  0  0  0  0  0  0  0  0  0  0
    9.0143   -0.3142    0.8710 C   0  0  0  0  0  0  0  0  0  0  0  0
    9.6473   -1.4179    0.2893 C   0  0  0  0  0  0  0  0  0  0  0  0
    8.9551   -2.2707   -0.5964 C   0  0  0  0  0  0  0  0  0  0  0  0
    7.6143   -2.0388   -0.9210 C   0  0  0  0  0  0  0  0  0  0  0  0
    6.9987   -0.9690   -0.3173 C   0  0  0  0  0  0  0  0  0  0  0  0
    5.7205   -0.4320   -0.4977 N   0  0  0  0  0  0  0  0  0  0  0  0
   -2.6882    1.0906    1.0186 N   0  0  0  0  0  0  0  0  0  0  0  0
   -2.9072    1.9278    2.1827 C   0  0  0  0  0  0  0  0  0  0  0  0
   -3.6503    0.2766    0.4424 C   0  0  0  0  0  0  0  0  0  0  0  0
   -5.0280    0.1195    0.6854 C   0  0  0  0  0  0  0  0  0  0  0  0
   -5.6760    0.8807    1.6322 O   0  0  0  0  0  0  0  0  0  0  0  0
   -6.3986    1.9337    0.9918 C   0  0  0  0  0  0  0  0  0  0  0  0
   -5.7213   -0.8751   -0.0294 C   0  0  0  0  0  0  0  0  0  0  0  0
   -7.0669   -1.0577    0.2110 O   0  0  0  0  0  0  0  0  0  0  0  0
   -7.2389   -2.0090    1.2606 C   0  0  0  0  0  0  0  0  0  0  0  0
   -4.4882   -3.9126   -2.4039 H   0  0  0  0  0  0  0  0  0  0  0  0
   -6.0743   -3.9119   -3.1829 H   0  0  0  0  0  0  0  0  0  0  0  0
   -4.9583   -2.5891   -3.5416 H   0  0  0  0  0  0  0  0  0  0  0  0
   -3.2062   -1.9906   -2.0464 H   0  0  0  0  0  0  0  0  0  0  0  0
   -0.9122   -0.3900   -1.2877 H   0  0  0  0  0  0  0  0  0  0  0  0
    0.8956    0.3328   -0.2819 H   0  0  0  0  0  0  0  0  0  0  0  0
    2.1918    2.3081    1.3606 H   0  0  0  0  0  0  0  0  0  0  0  0
    3.3526    3.5188   -0.5145 H   0  0  0  0  0  0  0  0  0  0  0  0
    1.6029    3.7867   -0.5963 H   0  0  0  0  0  0  0  0  0  0  0  0
    2.3764    2.6379   -1.6962 H   0  0  0  0  0  0  0  0  0  0  0  0
    6.9091    1.4326    1.7717 H   0  0  0  0  0  0  0  0  0  0  0  0
    9.5541    0.3590    1.5258 H   0  0  0  0  0  0  0  0  0  0  0  0
   10.6950   -1.6139    0.5086 H   0  0  0  0  0  0  0  0  0  0  0  0
    9.4793   -3.1112   -1.0468 H   0  0  0  0  0  0  0  0  0  0  0  0
    7.0907   -2.6734   -1.6258 H   0  0  0  0  0  0  0  0  0  0  0  0
    4.9225   -1.0010   -0.7486 H   0  0  0  0  0  0  0  0  0  0  0  0
   -3.6686    1.4810    2.8238 H   0  0  0  0  0  0  0  0  0  0  0  0
   -3.2162    2.9174    1.8392 H   0  0  0  0  0  0  0  0  0  0  0  0
   -1.9909    1.9837    2.7740 H   0  0  0  0  0  0  0  0  0  0  0  0
   -6.7810    2.5971    1.7734 H   0  0  0  0  0  0  0  0  0  0  0  0
   -7.2554    1.5481    0.4303 H   0  0  0  0  0  0  0  0  0  0  0  0
   -5.7484    2.5251    0.3369 H   0  0  0  0  0  0  0  0  0  0  0  0
   -8.3135   -2.1479    1.4124 H   0  0  0  0  0  0  0  0  0  0  0  0
   -6.8073   -2.9804    0.9952 H   0  0  0  0  0  0  0  0  0  0  0  0
   -6.8099   -1.6473    2.2015 H   0  0  0  0  0  0  0  0  0  0  0  0
  1  2  1  0
  2  3  1  0
  3  4  2  0
  4  5  1  0
  5  6  1  0
  6  7  2  0
  7  8  1  0
  8  9  2  0
  8 10  1  0
 10 11  1  0
 11 12  1  0
 11 13  1  0
 13 14  2  0
 13 15  1  0
 15 16  2  3
 16 17  1  0
 17 18  1  0
 18 19  2  0
 19 20  1  0
 20 21  2  0
 21 22  1  0
 22 23  2  0
 23 24  1  0
  7 25  1  0
 25 26  1  0
 25 27  1  0
 27 28  1  0
 28 29  1  0
 29 30  1  0
 28 31  2  0
 31 32  1  0
 32 33  1  0
 31  3  1  0
 27  5  2  0
 24 16  1  0
 23 18  1  0
  1 34  1  0
  1 35  1  0
  1 36  1  0
  4 37  1  0
  6 38  1  0
 10 39  1  0
 11 40  1  0
 12 41  1  0
 12 42  1  0
 12 43  1  0
 17 44  1  0
 19 45  1  0
 20 46  1  0
 21 47  1  0
 22 48  1  0
 24 49  1  0
 26 50  1  0
 26 51  1  0
 26 52  1  0
 30 53  1  0
 30 54  1  0
 30 55  1  0
 33 56  1  0
 33 57  1  0
 33 58  1  0
M  END
>  <Unnamed: 0>  (269) 
1616

>  <ID>  (269) 
TRAIN_1616

>  <Canonical_Smiles>  (269) 
COc1cc2cc(C(=O)NC(C)C(=O)N=C3Nc4ccccc4N3)n(C)c2c(OC)c1OC

>  <Inhibition>  (269) 
33.238365

>  <TDC_conf_true_inhibitor>  (269) 
0

>  <TDC_conf_non_inhibitor>  (269) 
1

>  <split>  (269) 
1

$$$$
269
     RDKit          3D

 24 25  0  0  0  0  0  0  0  0999 V2000
   -3.2901    2.4992   -0.8816 C   0  0  0  0  0  0  0  0  0  0  0  0
   -2.1999    1.6206   -0.5974 O   0  0  0  0  0  0  0  0  0  0  0  0
   -2.5759    0.3958   -0.1522 C   0  0  0  0  0  0  0  0  0  0  0  0
   -3.7306    0.0258    0.0091 O   0  0  0  0  0  0  0  0  0  0  0  0
   -1.3963   -0.4785    0.1281 C   0  0  0  0  0  0  0  0  0  0  0  0
   -0.1345   -0.0568   -0.0544 C   0  0  0  0  0  0  0  0  0  0  0  0
    0.9679   -0.8705    0.2064 N   0  0  0  0  0  0  0  0  0  0  0  0
    0.8341   -2.1870    0.6778 C   0  0  0  0  0  0  0  0  0  0  0  0
    1.7430   -2.9735    0.9339 O   0  0  0  0  0  0  0  0  0  0  0  0
   -0.5922   -2.6498    0.8792 C   0  0  0  0  0  0  0  0  0  0  0  0
   -1.6129   -1.8236    0.6119 C   0  0  0  0  0  0  0  0  0  0  0  0
   -0.8924   -4.3868    1.5045 Br  0  0  0  0  0  0  0  0  0  0  0  0
    2.2100   -0.2587   -0.0432 C   0  0  0  0  0  0  0  0  0  0  0  0
    2.3519    0.9800   -0.4873 N   0  0  0  0  0  0  0  0  0  0  0  0
    3.6854    1.3022   -0.6362 C   0  0  0  0  0  0  0  0  0  0  0  0
    4.5705    0.3052   -0.3047 C   0  0  0  0  0  0  0  0  0  0  0  0
    3.7034   -1.0736    0.2079 S   0  0  0  0  0  0  0  0  0  0  0  0
   -3.9204    2.0838   -1.6741 H   0  0  0  0  0  0  0  0  0  0  0  0
   -3.8765    2.6872    0.0232 H   0  0  0  0  0  0  0  0  0  0  0  0
   -2.8768    3.4496   -1.2302 H   0  0  0  0  0  0  0  0  0  0  0  0
    0.0657    0.9493   -0.4173 H   0  0  0  0  0  0  0  0  0  0  0  0
   -2.6416   -2.1476    0.7536 H   0  0  0  0  0  0  0  0  0  0  0  0
    3.9580    2.2878   -0.9937 H   0  0  0  0  0  0  0  0  0  0  0  0
    5.6502    0.3201   -0.3379 H   0  0  0  0  0  0  0  0  0  0  0  0
  1  2  1  0
  2  3  1  0
  3  4  2  0
  3  5  1  0
  5  6  2  0
  6  7  1  0
  7  8  1  0
  8  9  2  0
  8 10  1  0
 10 11  2  0
 10 12  1  0
  7 13  1  0
 13 14  2  0
 14 15  1  0
 15 16  2  0
 16 17  1  0
 11  5  1  0
 17 13  1  0
  1 18  1  0
  1 19  1  0
  1 20  1  0
  6 21  1  0
 11 22  1  0
 15 23  1  0
 16 24  1  0
M  END
>  <Unnamed: 0>  (270) 
1624

>  <ID>  (270) 
TRAIN_1624

>  <Canonical_Smiles>  (270) 
COC(=O)C1=CN(C(=O)C(=C1)Br)c2nccs2

>  <Inhibition>  (270) 
11.476122

>  <TDC_conf_true_inhibitor>  (270) 
0

>  <TDC_conf_non_inhibitor>  (270) 
1

>  <split>  (270) 
1

$$$$
270
     RDKit          3D

 39 41  0  0  0  0  0  0  0  0999 V2000
   -2.1061   -2.3576    1.4343 C   0  0  0  0  0  0  0  0  0  0  0  0
   -1.9690   -0.8990    1.0967 C   0  0  0  0  0  0  0  0  0  0  0  0
   -2.9940   -0.1021    0.7087 C   0  0  0  0  0  0  0  0  0  0  0  0
   -4.3950   -0.6383    0.5167 C   0  0  0  0  0  0  0  0  0  0  0  0
   -2.7007    1.2698    0.4809 C   0  0  0  0  0  0  0  0  0  0  0  0
   -3.4611    2.2804    0.1128 N   0  0  0  0  0  0  0  0  0  0  0  0
   -2.6701    3.4017    0.0489 N   0  0  0  0  0  0  0  0  0  0  0  0
   -1.4418    3.0477    0.3839 C   0  0  0  0  0  0  0  0  0  0  0  0
   -1.4121    1.7086    0.6611 N   0  0  0  0  0  0  0  0  0  0  0  0
   -0.3336    0.9779    1.0226 N   0  0  0  0  0  0  0  0  0  0  0  0
   -0.5737   -0.2904    1.2325 C   0  0  0  0  0  0  0  0  0  0  0  0
    0.4873   -1.0922    1.6040 N   0  0  0  0  0  0  0  0  0  0  0  0
    1.8785   -0.7258    1.3671 C   0  0  0  0  0  0  0  0  0  0  0  0
    2.4044   -1.0899    0.0221 C   0  0  0  0  0  0  0  0  0  0  0  0
    2.9033   -2.3507   -0.3778 C   0  0  0  0  0  0  0  0  0  0  0  0
    3.2954   -2.3758   -1.6513 N   0  0  0  0  0  0  0  0  0  0  0  0
    3.0625   -1.1171   -2.0787 N   0  0  0  0  0  0  0  0  0  0  0  0
    3.4084   -0.7652   -3.4347 C   0  0  0  0  0  0  0  0  0  0  0  0
    2.5245   -0.3047   -1.1072 C   0  0  0  0  0  0  0  0  0  0  0  0
    2.2191    0.9943   -1.3028 N   0  0  0  0  0  0  0  0  0  0  0  0
   -0.2280    3.8666    0.4762 C   0  0  0  0  0  0  0  0  0  0  0  0
   -0.4160    5.1348    0.0204 F   0  0  0  0  0  0  0  0  0  0  0  0
    0.2269    3.9828    1.7522 F   0  0  0  0  0  0  0  0  0  0  0  0
    0.7996    3.3544   -0.2588 F   0  0  0  0  0  0  0  0  0  0  0  0
   -1.6866   -2.5632    2.4256 H   0  0  0  0  0  0  0  0  0  0  0  0
   -1.5806   -2.9698    0.6942 H   0  0  0  0  0  0  0  0  0  0  0  0
   -3.1438   -2.6996    1.4671 H   0  0  0  0  0  0  0  0  0  0  0  0
   -4.8958   -0.7492    1.4840 H   0  0  0  0  0  0  0  0  0  0  0  0
   -4.9972    0.0419   -0.0954 H   0  0  0  0  0  0  0  0  0  0  0  0
   -4.3937   -1.6005   -0.0049 H   0  0  0  0  0  0  0  0  0  0  0  0
    0.3505   -2.0927    1.5358 H   0  0  0  0  0  0  0  0  0  0  0  0
    2.4820   -1.2470    2.1213 H   0  0  0  0  0  0  0  0  0  0  0  0
    2.0422    0.3402    1.5668 H   0  0  0  0  0  0  0  0  0  0  0  0
    2.9951   -3.2541    0.2106 H   0  0  0  0  0  0  0  0  0  0  0  0
    4.4005   -0.3051   -3.4226 H   0  0  0  0  0  0  0  0  0  0  0  0
    3.4185   -1.6702   -4.0498 H   0  0  0  0  0  0  0  0  0  0  0  0
    2.6642   -0.0696   -3.8309 H   0  0  0  0  0  0  0  0  0  0  0  0
    1.6660    1.5038   -0.6104 H   0  0  0  0  0  0  0  0  0  0  0  0
    2.1700    1.4250   -2.2213 H   0  0  0  0  0  0  0  0  0  0  0  0
  1  2  1  0
  2  3  2  0
  3  4  1  0
  3  5  1  0
  5  6  2  0
  6  7  1  0
  7  8  2  0
  8  9  1  0
  9 10  1  0
 10 11  2  0
 11 12  1  0
 12 13  1  0
 13 14  1  0
 14 15  1  0
 15 16  2  0
 16 17  1  0
 17 18  1  0
 17 19  1  0
 19 20  1  0
  8 21  1  0
 21 22  1  0
 21 23  1  0
 21 24  1  0
 11  2  1  0
  9  5  1  0
 19 14  2  0
  1 25  1  0
  1 26  1  0
  1 27  1  0
  4 28  1  0
  4 29  1  0
  4 30  1  0
 12 31  1  0
 13 32  1  0
 13 33  1  0
 15 34  1  0
 18 35  1  0
 18 36  1  0
 18 37  1  0
 20 38  1  0
 20 39  1  0
M  END
>  <Unnamed: 0>  (271) 
1633

>  <ID>  (271) 
TRAIN_1633

>  <Canonical_Smiles>  (271) 
Cc1c(C)c2nnc(n2nc1NCc3cnn(C)c3N)C(F)(F)F

>  <Inhibition>  (271) 
14.537116

>  <TDC_conf_true_inhibitor>  (271) 
0

>  <TDC_conf_non_inhibitor>  (271) 
1

>  <split>  (271) 
1

$$$$
271
     RDKit          3D

 33 35  0  0  0  0  0  0  0  0999 V2000
   -2.8475    3.4674    0.1993 C   0  0  0  0  0  0  0  0  0  0  0  0
   -2.4020    2.9673   -1.0609 O   0  0  0  0  0  0  0  0  0  0  0  0
   -2.1767    1.6095   -0.9774 C   0  0  0  0  0  0  0  0  0  0  0  0
   -3.1131    0.7554   -1.5664 C   0  0  0  0  0  0  0  0  0  0  0  0
   -2.9226   -0.6288   -1.5495 C   0  0  0  0  0  0  0  0  0  0  0  0
   -1.7865   -1.2007   -0.9608 C   0  0  0  0  0  0  0  0  0  0  0  0
   -1.4978   -2.5342   -0.8861 O   0  0  0  0  0  0  0  0  0  0  0  0
   -2.5051   -3.4294   -1.3418 C   0  0  0  0  0  0  0  0  0  0  0  0
   -0.8482   -0.3124   -0.4131 C   0  0  0  0  0  0  0  0  0  0  0  0
    0.3466   -0.5835    0.2163 N   0  0  0  0  0  0  0  0  0  0  0  0
    0.9969    0.5765    0.5719 C   0  0  0  0  0  0  0  0  0  0  0  0
    0.1534    1.6146    0.2127 C   0  0  0  0  0  0  0  0  0  0  0  0
   -1.0047    1.0712   -0.4109 C   0  0  0  0  0  0  0  0  0  0  0  0
    2.2801    0.6698    1.2461 C   0  0  0  0  0  0  0  0  0  0  0  0
    2.5341    1.5928    2.0072 O   0  0  0  0  0  0  0  0  0  0  0  0
    3.1534   -0.3433    0.8923 N   0  0  0  0  0  0  0  0  0  0  0  0
    4.3966   -0.4505    1.4684 C   0  0  0  0  0  0  0  0  0  0  0  0
    4.9296    0.2112    2.4696 N   0  0  0  0  0  0  0  0  0  0  0  0
    6.1900   -0.3050    2.6552 N   0  0  0  0  0  0  0  0  0  0  0  0
    6.4360   -1.2756    1.7879 N   0  0  0  0  0  0  0  0  0  0  0  0
    5.3249   -1.3641    1.0486 N   0  0  0  0  0  0  0  0  0  0  0  0
   -3.0486    4.5374    0.0818 H   0  0  0  0  0  0  0  0  0  0  0  0
   -2.0821    3.3562    0.9759 H   0  0  0  0  0  0  0  0  0  0  0  0
   -3.7756    2.9772    0.5110 H   0  0  0  0  0  0  0  0  0  0  0  0
   -3.9975    1.1759   -2.0406 H   0  0  0  0  0  0  0  0  0  0  0  0
   -3.6857   -1.2440   -2.0178 H   0  0  0  0  0  0  0  0  0  0  0  0
   -2.1527   -4.4490   -1.1585 H   0  0  0  0  0  0  0  0  0  0  0  0
   -2.6675   -3.3213   -2.4190 H   0  0  0  0  0  0  0  0  0  0  0  0
   -3.4381   -3.2945   -0.7846 H   0  0  0  0  0  0  0  0  0  0  0  0
    0.6551   -1.5244    0.4139 H   0  0  0  0  0  0  0  0  0  0  0  0
    0.3596    2.6655    0.3789 H   0  0  0  0  0  0  0  0  0  0  0  0
    2.9183   -0.9378    0.1143 H   0  0  0  0  0  0  0  0  0  0  0  0
    5.2773   -2.0493    0.3071 H   0  0  0  0  0  0  0  0  0  0  0  0
  1  2  1  0
  2  3  1  0
  3  4  2  0
  4  5  1  0
  5  6  2  0
  6  7  1  0
  7  8  1  0
  6  9  1  0
  9 10  1  0
 10 11  1  0
 11 12  2  0
 12 13  1  0
 11 14  1  0
 14 15  2  0
 14 16  1  0
 16 17  1  0
 17 18  2  0
 18 19  1  0
 19 20  2  0
 20 21  1  0
 13  3  1  0
 13  9  2  0
 21 17  1  0
  1 22  1  0
  1 23  1  0
  1 24  1  0
  4 25  1  0
  5 26  1  0
  8 27  1  0
  8 28  1  0
  8 29  1  0
 10 30  1  0
 12 31  1  0
 16 32  1  0
 21 33  1  0
M  END
>  <Unnamed: 0>  (272) 
1652

>  <ID>  (272) 
TRAIN_1652

>  <Canonical_Smiles>  (272) 
COc1ccc(OC)c2[nH]c(cc12)C(=O)Nc3nnn[nH]3

>  <Inhibition>  (272) 
18.360753

>  <TDC_conf_true_inhibitor>  (272) 
0

>  <TDC_conf_non_inhibitor>  (272) 
1

>  <split>  (272) 
1

$$$$
272
     RDKit          3D

 39 41  0  0  0  0  0  0  0  0999 V2000
   -4.7538    2.0501   -0.8698 C   0  0  0  0  0  0  0  0  0  0  0  0
   -4.0541    0.8321   -0.3801 C   0  0  0  0  0  0  0  0  0  0  0  0
   -2.6680    0.8373   -0.3621 N   0  0  0  0  0  0  0  0  0  0  0  0
   -2.1788   -0.3090    0.0902 C   0  0  0  0  0  0  0  0  0  0  0  0
   -3.4090   -1.4416    0.5390 S   0  0  0  0  0  0  0  0  0  0  0  0
   -4.6307   -0.3360    0.0780 C   0  0  0  0  0  0  0  0  0  0  0  0
   -6.0648   -0.7049    0.2194 C   0  0  0  0  0  0  0  0  0  0  0  0
   -0.8023   -0.6076    0.2319 C   0  0  0  0  0  0  0  0  0  0  0  0
    0.2058    0.2960    0.2338 C   0  0  0  0  0  0  0  0  0  0  0  0
    0.0544    1.6533    0.1268 N   0  0  0  0  0  0  0  0  0  0  0  0
    1.4745   -0.2794    0.3484 N   0  0  0  0  0  0  0  0  0  0  0  0
    1.3565   -1.7382    0.5036 C   0  0  0  0  0  0  0  0  0  0  0  0
   -0.1444   -1.9279    0.3754 C   0  0  0  0  0  0  0  0  0  0  0  0
   -0.7075   -3.0121    0.3881 O   0  0  0  0  0  0  0  0  0  0  0  0
    2.6963    0.4779    0.7049 C   0  0  0  0  0  0  0  0  0  0  0  0
    3.6988   -0.2267    1.6069 C   0  0  0  0  0  0  0  0  0  0  0  0
    4.8249   -1.0645    0.5129 S   0  0  0  0  0  6  0  0  0  0  0  0
    6.1657   -0.5999    0.8025 O   0  0  0  0  0  0  0  0  0  0  0  0
    4.4820   -2.4722    0.4940 O   0  0  0  0  0  0  0  0  0  0  0  0
    4.2833   -0.3216   -1.0084 C   0  0  0  0  0  0  0  0  0  0  0  0
    3.4801    0.8889   -0.5662 C   0  0  0  0  0  0  0  0  0  0  0  0
    2.6191    1.3376   -1.6110 O   0  0  0  0  0  0  0  0  0  0  0  0
   -5.1231    2.6431   -0.0244 H   0  0  0  0  0  0  0  0  0  0  0  0
   -5.6032    1.7826   -1.5063 H   0  0  0  0  0  0  0  0  0  0  0  0
   -4.0772    2.6762   -1.4617 H   0  0  0  0  0  0  0  0  0  0  0  0
   -6.2432   -1.7418   -0.0838 H   0  0  0  0  0  0  0  0  0  0  0  0
   -6.3866   -0.5874    1.2594 H   0  0  0  0  0  0  0  0  0  0  0  0
   -6.7019   -0.0695   -0.4042 H   0  0  0  0  0  0  0  0  0  0  0  0
    0.7672    2.0982   -0.4471 H   0  0  0  0  0  0  0  0  0  0  0  0
   -0.8905    1.9126   -0.1815 H   0  0  0  0  0  0  0  0  0  0  0  0
    1.6662   -2.0855    1.4912 H   0  0  0  0  0  0  0  0  0  0  0  0
    1.8646   -2.2644   -0.3061 H   0  0  0  0  0  0  0  0  0  0  0  0
    2.3735    1.3844    1.2295 H   0  0  0  0  0  0  0  0  0  0  0  0
    4.2917    0.5144    2.1546 H   0  0  0  0  0  0  0  0  0  0  0  0
    3.2686   -0.9270    2.3245 H   0  0  0  0  0  0  0  0  0  0  0  0
    3.6776   -1.0409   -1.5661 H   0  0  0  0  0  0  0  0  0  0  0  0
    5.1493   -0.0397   -1.6134 H   0  0  0  0  0  0  0  0  0  0  0  0
    4.1629    1.7120   -0.3178 H   0  0  0  0  0  0  0  0  0  0  0  0
    1.8761    0.7009   -1.6403 H   0  0  0  0  0  0  0  0  0  0  0  0
  1  2  1  0
  2  3  1  0
  3  4  2  0
  4  5  1  0
  5  6  1  0
  6  7  1  0
  4  8  1  0
  8  9  2  0
  9 10  1  0
  9 11  1  0
 11 12  1  0
 12 13  1  0
 13 14  2  0
 11 15  1  0
 15 16  1  0
 16 17  1  0
 17 18  2  0
 17 19  2  0
 17 20  1  0
 20 21  1  0
 21 22  1  0
  6  2  2  0
 13  8  1  0
 21 15  1  0
  1 23  1  0
  1 24  1  0
  1 25  1  0
  7 26  1  0
  7 27  1  0
  7 28  1  0
 10 29  1  0
 10 30  1  0
 12 31  1  0
 12 32  1  0
 15 33  1  0
 16 34  1  0
 16 35  1  0
 20 36  1  0
 20 37  1  0
 21 38  1  0
 22 39  1  0
M  END
>  <Unnamed: 0>  (273) 
1661

>  <ID>  (273) 
TRAIN_1661

>  <Canonical_Smiles>  (273) 
Cc1nc(sc1C)C2=C(N)N(CC2=O)C3CS(=O)(=O)CC3O

>  <Inhibition>  (273) 
12.909334

>  <TDC_conf_true_inhibitor>  (273) 
0

>  <TDC_conf_non_inhibitor>  (273) 
1

>  <split>  (273) 
1

$$$$
273
     RDKit          3D

 39 41  0  0  0  0  0  0  0  0999 V2000
   -2.1684   -1.6450   -1.2723 C   0  0  0  0  0  0  0  0  0  0  0  0
   -1.8681   -1.3851    0.1364 N   0  0  0  0  0  0  0  0  0  0  0  0
   -2.6213   -2.1946    1.0862 C   0  0  0  0  0  0  0  0  0  0  0  0
   -0.4722   -1.2404    0.3481 C   0  0  0  0  0  0  0  0  0  0  0  0
    0.2569   -2.3551    0.8118 C   0  0  0  0  0  0  0  0  0  0  0  0
    1.6320   -2.3081    0.9733 C   0  0  0  0  0  0  0  0  0  0  0  0
    2.3249   -1.1391    0.6727 C   0  0  0  0  0  0  0  0  0  0  0  0
    3.8278   -1.1278    0.8054 C   0  0  0  0  0  0  0  0  0  0  0  0
    4.3151    0.1861    1.0605 O   0  0  0  0  0  0  0  0  0  0  0  0
    3.9232    1.0818    0.0248 C   0  0  0  0  0  0  0  0  0  0  0  0
    2.4217    1.1311   -0.1108 C   0  0  0  0  0  0  0  0  0  0  0  0
    1.8257    2.2929   -0.5923 C   0  0  0  0  0  0  0  0  0  0  0  0
    0.4485    2.3546   -0.7302 C   0  0  0  0  0  0  0  0  0  0  0  0
   -0.3764    1.2542   -0.4178 C   0  0  0  0  0  0  0  0  0  0  0  0
   -1.7838    1.4137   -0.5094 N   0  0  0  0  0  0  0  0  0  0  0  0
   -2.3726    1.6721    0.8064 C   0  0  0  0  0  0  0  0  0  0  0  0
   -2.3116    2.2378   -1.5897 C   0  0  0  0  0  0  0  0  0  0  0  0
    0.2181    0.0049    0.0392 C   0  0  0  0  0  0  0  0  0  0  0  0
    1.6427   -0.0012    0.1987 C   0  0  0  0  0  0  0  0  0  0  0  0
   -1.6519   -0.9583   -1.9514 H   0  0  0  0  0  0  0  0  0  0  0  0
   -3.2430   -1.5259   -1.4500 H   0  0  0  0  0  0  0  0  0  0  0  0
   -1.8918   -2.6694   -1.5486 H   0  0  0  0  0  0  0  0  0  0  0  0
   -2.4834   -3.2677    0.9149 H   0  0  0  0  0  0  0  0  0  0  0  0
   -2.3463   -1.9542    2.1194 H   0  0  0  0  0  0  0  0  0  0  0  0
   -3.6905   -1.9790    0.9820 H   0  0  0  0  0  0  0  0  0  0  0  0
   -0.2440   -3.2946    1.0231 H   0  0  0  0  0  0  0  0  0  0  0  0
    2.1587   -3.1924    1.3226 H   0  0  0  0  0  0  0  0  0  0  0  0
    4.2936   -1.5281   -0.1031 H   0  0  0  0  0  0  0  0  0  0  0  0
    4.1381   -1.7506    1.6512 H   0  0  0  0  0  0  0  0  0  0  0  0
    4.3830    0.7812   -0.9242 H   0  0  0  0  0  0  0  0  0  0  0  0
    4.3129    2.0690    0.2953 H   0  0  0  0  0  0  0  0  0  0  0  0
    2.4262    3.1645   -0.8396 H   0  0  0  0  0  0  0  0  0  0  0  0
    0.0170    3.2947   -1.0586 H   0  0  0  0  0  0  0  0  0  0  0  0
   -3.4616    1.5644    0.7521 H   0  0  0  0  0  0  0  0  0  0  0  0
   -2.1503    2.6927    1.1401 H   0  0  0  0  0  0  0  0  0  0  0  0
   -2.0187    0.9782    1.5762 H   0  0  0  0  0  0  0  0  0  0  0  0
   -3.3812    2.0352   -1.7141 H   0  0  0  0  0  0  0  0  0  0  0  0
   -2.2007    3.3082   -1.3847 H   0  0  0  0  0  0  0  0  0  0  0  0
   -1.8286    1.9993   -2.5439 H   0  0  0  0  0  0  0  0  0  0  0  0
  1  2  1  0
  2  3  1  0
  2  4  1  0
  4  5  2  0
  5  6  1  0
  6  7  2  0
  7  8  1  0
  8  9  1  0
  9 10  1  0
 10 11  1  0
 11 12  1  0
 12 13  2  0
 13 14  1  0
 14 15  1  0
 15 16  1  0
 15 17  1  0
 14 18  2  0
 18 19  1  0
 18  4  1  0
 19  7  1  0
 19 11  2  0
  1 20  1  0
  1 21  1  0
  1 22  1  0
  3 23  1  0
  3 24  1  0
  3 25  1  0
  5 26  1  0
  6 27  1  0
  8 28  1  0
  8 29  1  0
 10 30  1  0
 10 31  1  0
 12 32  1  0
 13 33  1  0
 16 34  1  0
 16 35  1  0
 16 36  1  0
 17 37  1  0
 17 38  1  0
 17 39  1  0
M  END
>  <Unnamed: 0>  (274) 
1665

>  <ID>  (274) 
TRAIN_1665

>  <Canonical_Smiles>  (274) 
CN(C)c1ccc2COCc3ccc(N(C)C)c1c23

>  <Inhibition>  (274) 
11.703699

>  <TDC_conf_true_inhibitor>  (274) 
0

>  <TDC_conf_non_inhibitor>  (274) 
1

>  <split>  (274) 
1

$$$$
274
     RDKit          3D

 45 46  0  0  0  0  0  0  0  0999 V2000
   -2.4969   -0.3637    1.2417 C   0  0  0  0  0  0  0  0  0  0  0  0
   -1.8597   -0.7058   -0.1251 C   0  0  0  0  0  0  0  0  0  0  0  0
   -1.9039   -2.2488   -0.2546 C   0  0  0  0  0  0  0  0  0  0  0  0
   -2.5422    0.0146   -1.3208 C   0  0  0  0  0  0  0  0  0  0  0  0
   -3.9873   -0.3043   -1.6285 C   0  0  0  0  0  0  0  0  0  0  0  0
   -2.2579    1.5062   -1.0589 C   0  0  0  0  0  0  0  0  0  0  0  0
   -0.8534    1.4898   -0.4171 C   0  0  0  0  0  0  0  0  0  0  0  0
   -0.4571   -0.0126   -0.4113 C   0  0  0  0  0  0  0  0  0  0  0  0
   -0.1654   -0.4407   -1.8759 C   0  0  0  0  0  0  0  0  0  0  0  0
   -1.5684   -0.3617   -2.4364 C   0  0  0  0  0  0  0  0  0  0  0  0
   -1.8557   -0.5367   -3.6102 O   0  0  0  0  0  0  0  0  0  0  0  0
    0.6573   -0.4225    0.5655 C   0  0  0  0  0  0  0  0  0  0  0  0
    0.4266   -1.2829    1.4211 O   0  0  0  0  0  0  0  0  0  0  0  0
    1.9440    0.1030    0.4790 N   0  0  0  0  0  0  0  0  0  0  0  0
    2.9611   -0.5015    1.3672 C   0  0  0  0  0  0  0  0  0  0  0  0
    3.3961   -1.9087    0.9399 C   0  0  0  0  0  0  0  0  0  0  0  0
    4.1019   -1.8698   -0.3460 C   0  0  0  0  0  0  0  0  0  0  0  0
    4.6503   -1.8111   -1.3668 N   0  0  0  0  0  0  0  0  0  0  0  0
    2.3916    1.2454   -0.3367 C   0  0  0  0  0  0  0  0  0  0  0  0
    2.2988    2.5967    0.3814 C   0  0  0  0  0  0  0  0  0  0  0  0
    3.4385    2.8274    1.2753 C   0  0  0  0  0  0  0  0  0  0  0  0
    4.3444    3.0025    1.9777 N   0  0  0  0  0  0  0  0  0  0  0  0
   -3.5341   -0.7161    1.2826 H   0  0  0  0  0  0  0  0  0  0  0  0
   -1.9624   -0.8538    2.0620 H   0  0  0  0  0  0  0  0  0  0  0  0
   -2.5174    0.7034    1.4729 H   0  0  0  0  0  0  0  0  0  0  0  0
   -1.5269   -2.6258   -1.2083 H   0  0  0  0  0  0  0  0  0  0  0  0
   -2.9345   -2.6111   -0.1614 H   0  0  0  0  0  0  0  0  0  0  0  0
   -1.3258   -2.7366    0.5354 H   0  0  0  0  0  0  0  0  0  0  0  0
   -4.1204   -1.3601   -1.8856 H   0  0  0  0  0  0  0  0  0  0  0  0
   -4.3398    0.2795   -2.4863 H   0  0  0  0  0  0  0  0  0  0  0  0
   -4.6392   -0.0744   -0.7805 H   0  0  0  0  0  0  0  0  0  0  0  0
   -2.9892    1.9558   -0.3792 H   0  0  0  0  0  0  0  0  0  0  0  0
   -2.2563    2.0960   -1.9830 H   0  0  0  0  0  0  0  0  0  0  0  0
   -0.1797    2.1143   -1.0098 H   0  0  0  0  0  0  0  0  0  0  0  0
   -0.8774    1.9105    0.5937 H   0  0  0  0  0  0  0  0  0  0  0  0
    0.4757    0.2520   -2.4228 H   0  0  0  0  0  0  0  0  0  0  0  0
    0.2291   -1.4569   -1.9506 H   0  0  0  0  0  0  0  0  0  0  0  0
    3.8376    0.1517    1.4190 H   0  0  0  0  0  0  0  0  0  0  0  0
    2.5418   -0.5484    2.3797 H   0  0  0  0  0  0  0  0  0  0  0  0
    4.0640   -2.3195    1.7051 H   0  0  0  0  0  0  0  0  0  0  0  0
    2.5391   -2.5854    0.8678 H   0  0  0  0  0  0  0  0  0  0  0  0
    1.7840    1.2947   -1.2365 H   0  0  0  0  0  0  0  0  0  0  0  0
    3.4144    1.0477   -0.6804 H   0  0  0  0  0  0  0  0  0  0  0  0
    1.3677    2.6746    0.9501 H   0  0  0  0  0  0  0  0  0  0  0  0
    2.2871    3.3931   -0.3721 H   0  0  0  0  0  0  0  0  0  0  0  0
  1  2  1  0
  2  3  1  0
  2  4  1  0
  4  5  1  0
  4  6  1  0
  6  7  1  0
  7  8  1  0
  8  9  1  0
  9 10  1  0
 10 11  2  0
  8 12  1  0
 12 13  2  0
 12 14  1  0
 14 15  1  0
 15 16  1  0
 16 17  1  0
 17 18  3  0
 14 19  1  0
 19 20  1  0
 20 21  1  0
 21 22  3  0
  8  2  1  0
 10  4  1  0
  1 23  1  0
  1 24  1  0
  1 25  1  0
  3 26  1  0
  3 27  1  0
  3 28  1  0
  5 29  1  0
  5 30  1  0
  5 31  1  0
  6 32  1  0
  6 33  1  0
  7 34  1  0
  7 35  1  0
  9 36  1  0
  9 37  1  0
 15 38  1  0
 15 39  1  0
 16 40  1  0
 16 41  1  0
 19 42  1  0
 19 43  1  0
 20 44  1  0
 20 45  1  0
M  END
>  <Unnamed: 0>  (275) 
1674

>  <ID>  (275) 
TRAIN_1674

>  <Canonical_Smiles>  (275) 
CC1(C)C2(C)CCC1(CC2=O)C(=O)N(CCC#N)CCC#N

>  <Inhibition>  (275) 
5.378455

>  <TDC_conf_true_inhibitor>  (275) 
0

>  <TDC_conf_non_inhibitor>  (275) 
1

>  <split>  (275) 
1

$$$$
