0
     RDKit          3D

 43 45  0  0  0  0  0  0  0  0999 V2000
   -2.9955   -2.0442   -1.6458 O   0  0  0  0  0  0  0  0  0  0  0  0
   -2.3215   -1.1900   -0.7639 C   0  0  0  0  0  0  0  0  0  0  0  0
   -1.0050   -1.4095   -0.5580 C   0  0  0  0  0  0  0  0  0  0  0  0
   -0.4612   -2.5009   -1.2628 O   0  0  0  0  0  0  0  0  0  0  0  0
    0.9523   -2.3989   -1.4301 C   0  0  0  0  0  0  0  0  0  0  0  0
    1.6080   -2.2744   -0.0705 C   0  0  0  0  0  0  0  0  0  0  0  0
    1.1540   -1.0570    0.5780 N   0  0  0  0  0  0  0  0  0  0  0  0
    2.0495   -0.3890    1.5150 C   0  0  0  0  0  0  0  0  0  0  0  0
    3.1349    0.3835    0.8032 C   0  0  0  0  0  0  0  0  0  0  0  0
    4.4742   -0.0251    0.8752 C   0  0  0  0  0  0  0  0  0  0  0  0
    5.4692    0.6909    0.2068 C   0  0  0  0  0  0  0  0  0  0  0  0
    5.1364    1.8211   -0.5378 C   0  0  0  0  0  0  0  0  0  0  0  0
    3.8093    2.2386   -0.6143 C   0  0  0  0  0  0  0  0  0  0  0  0
    2.8134    1.5246    0.0529 C   0  0  0  0  0  0  0  0  0  0  0  0
   -0.1363   -0.5846    0.3832 C   0  0  0  0  0  0  0  0  0  0  0  0
   -0.5365    0.4385    0.9285 O   0  0  0  0  0  0  0  0  0  0  0  0
   -3.2561   -0.1453   -0.1779 C   0  0  0  0  0  0  0  0  0  0  0  0
   -2.9114    1.3044   -0.5603 C   0  0  0  0  0  0  0  0  0  0  0  0
   -3.2613    2.2750    0.5601 C   0  0  0  0  0  0  0  0  0  0  0  0
   -4.5350    1.9382    1.1006 O   0  0  0  0  0  0  0  0  0  0  0  0
   -4.5207    0.7141    1.8356 C   0  0  0  0  0  0  0  0  0  0  0  0
   -3.5193   -0.3212    1.3215 C   0  0  0  0  0  0  0  0  0  0  0  0
   -2.3347   -2.6905   -1.9638 H   0  0  0  0  0  0  0  0  0  0  0  0
    1.2940   -3.3098   -1.9317 H   0  0  0  0  0  0  0  0  0  0  0  0
    1.1852   -1.5478   -2.0823 H   0  0  0  0  0  0  0  0  0  0  0  0
    1.3304   -3.1099    0.5817 H   0  0  0  0  0  0  0  0  0  0  0  0
    2.6961   -2.2554   -0.1820 H   0  0  0  0  0  0  0  0  0  0  0  0
    1.4953    0.3001    2.1627 H   0  0  0  0  0  0  0  0  0  0  0  0
    2.4769   -1.1549    2.1735 H   0  0  0  0  0  0  0  0  0  0  0  0
    4.7531   -0.9029    1.4534 H   0  0  0  0  0  0  0  0  0  0  0  0
    6.5056    0.3692    0.2692 H   0  0  0  0  0  0  0  0  0  0  0  0
    5.9119    2.3796   -1.0556 H   0  0  0  0  0  0  0  0  0  0  0  0
    3.5484    3.1224   -1.1908 H   0  0  0  0  0  0  0  0  0  0  0  0
    1.7800    1.8625   -0.0100 H   0  0  0  0  0  0  0  0  0  0  0  0
   -4.2370   -0.3287   -0.6467 H   0  0  0  0  0  0  0  0  0  0  0  0
   -3.5086    1.5642   -1.4453 H   0  0  0  0  0  0  0  0  0  0  0  0
   -1.8697    1.4426   -0.8656 H   0  0  0  0  0  0  0  0  0  0  0  0
   -3.3181    3.2940    0.1639 H   0  0  0  0  0  0  0  0  0  0  0  0
   -2.5081    2.2764    1.3564 H   0  0  0  0  0  0  0  0  0  0  0  0
   -5.5354    0.3050    1.7838 H   0  0  0  0  0  0  0  0  0  0  0  0
   -4.3229    0.9410    2.8892 H   0  0  0  0  0  0  0  0  0  0  0  0
   -3.8879   -1.3301    1.5444 H   0  0  0  0  0  0  0  0  0  0  0  0
   -2.5956   -0.2155    1.8979 H   0  0  0  0  0  0  0  0  0  0  0  0
  1  2  1  0
  2  3  2  0
  3  4  1  0
  4  5  1  0
  5  6  1  0
  6  7  1  0
  7  8  1  0
  8  9  1  0
  9 10  2  0
 10 11  1  0
 11 12  2  0
 12 13  1  0
 13 14  2  0
  7 15  1  0
 15 16  2  0
  2 17  1  0
 17 18  1  0
 18 19  1  0
 19 20  1  0
 20 21  1  0
 21 22  1  0
 15  3  1  0
 14  9  1  0
 22 17  1  0
  1 23  1  0
  5 24  1  0
  5 25  1  0
  6 26  1  0
  6 27  1  0
  8 28  1  0
  8 29  1  0
 10 30  1  0
 11 31  1  0
 12 32  1  0
 13 33  1  0
 14 34  1  0
 17 35  1  0
 18 36  1  0
 18 37  1  0
 19 38  1  0
 19 39  1  0
 21 40  1  0
 21 41  1  0
 22 42  1  0
 22 43  1  0
M  END
>  <Unnamed: 0>  (1) 
5

>  <ID>  (1) 
TRAIN_0005

>  <Canonical_Smiles>  (1) 
O\C(=C\1/OCCN(Cc2ccccc2)C1=O)\C3CCOCC3

>  <Inhibition>  (1) 
1.28

>  <TDC_conf_true_inhibitor>  (1) 
0

>  <TDC_conf_non_inhibitor>  (1) 
1

>  <split>  (1) 
1

$$$$
1
     RDKit          3D

 60 62  0  0  0  0  0  0  0  0999 V2000
    2.9487   -3.1843   -3.2017 C   0  0  0  0  0  0  0  0  0  0  0  0
    2.3591   -2.2511   -2.1879 C   0  0  0  0  0  0  0  0  0  0  0  0
    1.0004   -2.2458   -1.9513 C   0  0  0  0  0  0  0  0  0  0  0  0
    0.5139   -1.3597   -1.0076 C   0  0  0  0  0  0  0  0  0  0  0  0
    1.3663   -0.5587   -0.3436 N   0  0  0  0  0  0  0  0  0  0  0  0
    2.6788   -0.6167   -0.6197 C   0  0  0  0  0  0  0  0  0  0  0  0
    3.4692    0.2515    0.1311 N   0  0  0  0  0  0  0  0  0  0  0  0
    4.8389    0.5172    0.1871 C   0  0  0  0  0  0  0  0  0  0  0  0
    5.7858   -0.0916   -0.6383 C   0  0  0  0  0  0  0  0  0  0  0  0
    7.1482    0.2127   -0.5309 C   0  0  0  0  0  0  0  0  0  0  0  0
    7.5985    1.1389    0.4148 C   0  0  0  0  0  0  0  0  0  0  0  0
    9.0053    1.4186    0.4932 C   0  0  0  0  0  0  0  0  0  0  0  0
   10.1417    1.6416    0.5558 N   0  0  0  0  0  0  0  0  0  0  0  0
    6.6727    1.7680    1.2599 C   0  0  0  0  0  0  0  0  0  0  0  0
    5.3046    1.4471    1.1317 C   0  0  0  0  0  0  0  0  0  0  0  0
    7.1218    2.7718    2.2918 C   0  0  0  0  0  0  0  0  0  0  0  0
    7.7393    3.8487    1.7376 F   0  0  0  0  0  0  0  0  0  0  0  0
    6.0953    3.2766    3.0329 F   0  0  0  0  0  0  0  0  0  0  0  0
    7.9958    2.2430    3.1890 F   0  0  0  0  0  0  0  0  0  0  0  0
    3.2035   -1.4394   -1.5318 N   0  0  0  0  0  0  0  0  0  0  0  0
   -0.8538   -1.3086   -0.7012 N   0  0  0  0  0  0  0  0  0  0  0  0
   -1.7889   -1.4915   -1.8206 C   0  0  0  0  0  0  0  0  0  0  0  0
   -3.1940   -1.0253   -1.4535 C   0  0  0  0  0  0  0  0  0  0  0  0
   -3.1857    0.4532   -1.0480 C   0  0  0  0  0  0  0  0  0  0  0  0
   -1.9613    0.8326   -0.1974 C   0  0  0  0  0  0  0  0  0  0  0  0
   -1.2620   -0.3970    0.3759 C   0  0  0  0  0  0  0  0  0  0  0  0
   -4.4976    0.8360   -0.3716 C   0  0  0  0  0  0  0  0  0  0  0  0
   -5.3031    1.5711   -0.9352 O   0  0  0  0  0  0  0  0  0  0  0  0
   -4.6963    0.2918    0.8787 N   0  0  0  0  0  0  0  0  0  0  0  0
   -5.9113    0.4777    1.6893 C   0  0  0  0  0  0  0  0  0  0  0  0
   -6.1891    1.9664    1.9534 C   0  0  0  0  0  0  0  0  0  0  0  0
   -7.1220   -0.1758    1.0072 C   0  0  0  0  0  0  0  0  0  0  0  0
   -5.6811   -0.2116    3.0473 C   0  0  0  0  0  0  0  0  0  0  0  0
    4.0358   -3.0628   -3.2585 H   0  0  0  0  0  0  0  0  0  0  0  0
    2.5315   -2.9788   -4.1924 H   0  0  0  0  0  0  0  0  0  0  0  0
    2.7362   -4.2230   -2.9307 H   0  0  0  0  0  0  0  0  0  0  0  0
    0.3557   -2.9341   -2.4801 H   0  0  0  0  0  0  0  0  0  0  0  0
    2.8648    0.7605    0.7596 H   0  0  0  0  0  0  0  0  0  0  0  0
    5.4868   -0.8179   -1.3893 H   0  0  0  0  0  0  0  0  0  0  0  0
    7.8511   -0.2860   -1.1969 H   0  0  0  0  0  0  0  0  0  0  0  0
    4.5858    1.9359    1.7905 H   0  0  0  0  0  0  0  0  0  0  0  0
   -1.4509   -0.9283   -2.7007 H   0  0  0  0  0  0  0  0  0  0  0  0
   -1.8391   -2.5514   -2.0942 H   0  0  0  0  0  0  0  0  0  0  0  0
   -3.5891   -1.6589   -0.6497 H   0  0  0  0  0  0  0  0  0  0  0  0
   -3.8683   -1.1680   -2.3069 H   0  0  0  0  0  0  0  0  0  0  0  0
   -3.1367    1.0588   -1.9641 H   0  0  0  0  0  0  0  0  0  0  0  0
   -1.2489    1.3772   -0.8313 H   0  0  0  0  0  0  0  0  0  0  0  0
   -2.2340    1.5174    0.6150 H   0  0  0  0  0  0  0  0  0  0  0  0
   -1.9476   -0.9409    1.0365 H   0  0  0  0  0  0  0  0  0  0  0  0
   -0.4394   -0.0854    1.0294 H   0  0  0  0  0  0  0  0  0  0  0  0
   -4.0900   -0.4657    1.1569 H   0  0  0  0  0  0  0  0  0  0  0  0
   -5.3033    2.4659    2.3597 H   0  0  0  0  0  0  0  0  0  0  0  0
   -7.0074    2.0939    2.6709 H   0  0  0  0  0  0  0  0  0  0  0  0
   -6.4772    2.4993    1.0427 H   0  0  0  0  0  0  0  0  0  0  0  0
   -7.3624    0.3071    0.0550 H   0  0  0  0  0  0  0  0  0  0  0  0
   -8.0137   -0.1158    1.6405 H   0  0  0  0  0  0  0  0  0  0  0  0
   -6.9297   -1.2341    0.7964 H   0  0  0  0  0  0  0  0  0  0  0  0
   -5.4869   -1.2834    2.9196 H   0  0  0  0  0  0  0  0  0  0  0  0
   -4.8136    0.2170    3.5625 H   0  0  0  0  0  0  0  0  0  0  0  0
   -6.5512   -0.1055    3.7047 H   0  0  0  0  0  0  0  0  0  0  0  0
  1  2  1  0
  2  3  2  0
  3  4  1  0
  4  5  2  0
  5  6  1  0
  6  7  1  0
  7  8  1  0
  8  9  2  0
  9 10  1  0
 10 11  2  0
 11 12  1  0
 12 13  3  0
 11 14  1  0
 14 15  2  0
 14 16  1  0
 16 17  1  0
 16 18  1  0
 16 19  1  0
  6 20  2  0
  4 21  1  0
 21 22  1  0
 22 23  1  0
 23 24  1  0
 24 25  1  0
 25 26  1  0
 24 27  1  0
 27 28  2  0
 27 29  1  0
 29 30  1  0
 30 31  1  0
 30 32  1  0
 30 33  1  0
 20  2  1  0
 15  8  1  0
 26 21  1  0
  1 34  1  0
  1 35  1  0
  1 36  1  0
  3 37  1  0
  7 38  1  0
  9 39  1  0
 10 40  1  0
 15 41  1  0
 22 42  1  0
 22 43  1  0
 23 44  1  0
 23 45  1  0
 24 46  1  0
 25 47  1  0
 25 48  1  0
 26 49  1  0
 26 50  1  0
 29 51  1  0
 31 52  1  0
 31 53  1  0
 31 54  1  0
 32 55  1  0
 32 56  1  0
 32 57  1  0
 33 58  1  0
 33 59  1  0
 33 60  1  0
M  END
>  <Unnamed: 0>  (2) 
8

>  <ID>  (2) 
TRAIN_0008

>  <Canonical_Smiles>  (2) 
Cc1cc(nc(Nc2ccc(C#N)c(c2)C(F)(F)F)n1)N3CCC(CC3)C(=O)NC(C)(C)C

>  <Inhibition>  (2) 
64.9

>  <TDC_conf_true_inhibitor>  (2) 
1

>  <TDC_conf_non_inhibitor>  (2) 
0

>  <split>  (2) 
1

$$$$
2
     RDKit          3D

 27 28  0  0  0  0  0  0  0  0999 V2000
   -2.7646    2.5965   -0.1001 C   0  0  0  0  0  0  0  0  0  0  0  0
   -2.2045    1.5580   -1.4745 S   0  0  0  0  0  0  0  0  0  0  0  0
   -0.8944    0.6994   -0.6686 C   0  0  0  0  0  0  0  0  0  0  0  0
   -1.0995   -0.5137   -0.1051 C   0  0  0  0  0  0  0  0  0  0  0  0
   -2.4344   -1.1699   -0.0511 C   0  0  0  0  0  0  0  0  0  0  0  0
   -3.3695   -0.6519    0.5590 O   0  0  0  0  0  0  0  0  0  0  0  0
   -2.5841   -2.5003   -0.7403 C   0  0  0  0  0  0  0  0  0  0  0  0
    0.0724   -1.2440    0.4587 C   0  0  0  0  0  0  0  0  0  0  0  0
   -0.0455   -2.3604    0.9536 O   0  0  0  0  0  0  0  0  0  0  0  0
    1.4044   -0.6021    0.3953 C   0  0  0  0  0  0  0  0  0  0  0  0
    2.5293   -1.2457    0.9216 C   0  0  0  0  0  0  0  0  0  0  0  0
    3.7621   -0.6117    0.8431 C   0  0  0  0  0  0  0  0  0  0  0  0
    4.8465   -1.2177    1.3441 F   0  0  0  0  0  0  0  0  0  0  0  0
    3.8732    0.6434    0.2536 C   0  0  0  0  0  0  0  0  0  0  0  0
    5.0645    1.2528    0.1880 F   0  0  0  0  0  0  0  0  0  0  0  0
    2.7529    1.2847   -0.2712 C   0  0  0  0  0  0  0  0  0  0  0  0
    1.5065    0.6566   -0.2160 C   0  0  0  0  0  0  0  0  0  0  0  0
    0.3578    1.2877   -0.6919 N   0  0  0  0  0  0  0  0  0  0  0  0
   -1.9646    3.2725    0.2148 H   0  0  0  0  0  0  0  0  0  0  0  0
   -3.6166    3.1973   -0.4291 H   0  0  0  0  0  0  0  0  0  0  0  0
   -3.0769    1.9894    0.7530 H   0  0  0  0  0  0  0  0  0  0  0  0
   -2.6258   -3.2955    0.0081 H   0  0  0  0  0  0  0  0  0  0  0  0
   -3.5044   -2.4945   -1.3309 H   0  0  0  0  0  0  0  0  0  0  0  0
   -1.7489   -2.6870   -1.4212 H   0  0  0  0  0  0  0  0  0  0  0  0
    2.4535   -2.2234    1.3891 H   0  0  0  0  0  0  0  0  0  0  0  0
    2.8714    2.2685   -0.7145 H   0  0  0  0  0  0  0  0  0  0  0  0
    0.4393    2.1111   -1.2786 H   0  0  0  0  0  0  0  0  0  0  0  0
  1  2  1  0
  2  3  1  0
  3  4  2  0
  4  5  1  0
  5  6  2  0
  5  7  1  0
  4  8  1  0
  8  9  2  0
  8 10  1  0
 10 11  2  0
 11 12  1  0
 12 13  1  0
 12 14  2  0
 14 15  1  0
 14 16  1  0
 16 17  2  0
 17 18  1  0
 18  3  1  0
 17 10  1  0
  1 19  1  0
  1 20  1  0
  1 21  1  0
  7 22  1  0
  7 23  1  0
  7 24  1  0
 11 25  1  0
 16 26  1  0
 18 27  1  0
M  END
>  <Unnamed: 0>  (3) 
19

>  <ID>  (3) 
TRAIN_0019

>  <Canonical_Smiles>  (3) 
CSC1=C(C(=O)C)C(=O)c2cc(F)c(F)cc2N1

>  <Inhibition>  (3) 
15.0

>  <TDC_conf_true_inhibitor>  (3) 
0

>  <TDC_conf_non_inhibitor>  (3) 
1

>  <split>  (3) 
1

$$$$
3
     RDKit          3D

 37 38  0  0  0  0  0  0  0  0999 V2000
    4.1804   -0.6626   -0.6421 C   0  0  0  0  0  0  0  0  0  0  0  0
    3.5791    0.3700    0.3152 C   0  0  0  0  0  0  0  0  0  0  0  0
    4.4886    1.5999    0.3755 C   0  0  0  0  0  0  0  0  0  0  0  0
    2.1586    0.7891   -0.1033 C   0  0  0  0  0  0  0  0  0  0  0  0
    1.2010   -0.2868    0.1518 N   0  0  0  0  0  0  0  0  0  0  0  0
   -0.1682   -0.1863   -0.0913 C   0  0  0  0  0  0  0  0  0  0  0  0
   -0.9095   -1.2300   -0.5440 C   0  0  0  0  0  0  0  0  0  0  0  0
   -0.2730   -2.5620   -0.8068 C   0  0  0  0  0  0  0  0  0  0  0  0
    0.9236   -2.6473   -1.0998 O   0  0  0  0  0  0  0  0  0  0  0  0
   -1.1098   -3.8085   -0.6698 C   0  0  0  0  0  0  0  0  0  0  0  0
   -2.3688   -1.0248   -0.7888 C   0  0  0  0  0  0  0  0  0  0  0  0
   -2.9903   -1.8417   -1.4578 O   0  0  0  0  0  0  0  0  0  0  0  0
   -3.0254    0.1959   -0.2391 C   0  0  0  0  0  0  0  0  0  0  0  0
   -4.4224    0.3914   -0.1894 C   0  0  0  0  0  0  0  0  0  0  0  0
   -5.5339   -0.8592   -0.6663 Cl  0  0  0  0  0  0  0  0  0  0  0  0
   -4.9405    1.6127    0.2941 C   0  0  0  0  0  0  0  0  0  0  0  0
   -6.6578    1.8900    0.3660 Cl  0  0  0  0  0  0  0  0  0  0  0  0
   -4.0627    2.6177    0.7223 C   0  0  0  0  0  0  0  0  0  0  0  0
   -4.6067    4.1506    1.3129 Cl  0  0  0  0  0  0  0  0  0  0  0  0
   -2.6846    2.4066    0.6907 C   0  0  0  0  0  0  0  0  0  0  0  0
   -2.1611    1.1922    0.2395 C   0  0  0  0  0  0  0  0  0  0  0  0
   -0.7722    1.0241    0.1800 N   0  0  0  0  0  0  0  0  0  0  0  0
    4.2029   -0.2852   -1.6701 H   0  0  0  0  0  0  0  0  0  0  0  0
    5.2077   -0.9077   -0.3511 H   0  0  0  0  0  0  0  0  0  0  0  0
    3.6110   -1.5963   -0.6356 H   0  0  0  0  0  0  0  0  0  0  0  0
    3.5425   -0.0733    1.3188 H   0  0  0  0  0  0  0  0  0  0  0  0
    5.4996    1.3221    0.6921 H   0  0  0  0  0  0  0  0  0  0  0  0
    4.1059    2.3327    1.0939 H   0  0  0  0  0  0  0  0  0  0  0  0
    4.5612    2.0887   -0.6021 H   0  0  0  0  0  0  0  0  0  0  0  0
    2.1359    1.0614   -1.1654 H   0  0  0  0  0  0  0  0  0  0  0  0
    1.8689    1.6753    0.4725 H   0  0  0  0  0  0  0  0  0  0  0  0
    1.5576   -1.1830   -0.2124 H   0  0  0  0  0  0  0  0  0  0  0  0
   -0.4674   -4.6335   -0.3465 H   0  0  0  0  0  0  0  0  0  0  0  0
   -1.5601   -4.0611   -1.6325 H   0  0  0  0  0  0  0  0  0  0  0  0
   -1.8814   -3.6814    0.0942 H   0  0  0  0  0  0  0  0  0  0  0  0
   -2.0130    3.1969    1.0213 H   0  0  0  0  0  0  0  0  0  0  0  0
   -0.2157    1.6134    0.7890 H   0  0  0  0  0  0  0  0  0  0  0  0
  1  2  1  0
  2  3  1  0
  2  4  1  0
  4  5  1  0
  5  6  1  0
  6  7  2  0
  7  8  1  0
  8  9  2  0
  8 10  1  0
  7 11  1  0
 11 12  2  0
 11 13  1  0
 13 14  2  0
 14 15  1  0
 14 16  1  0
 16 17  1  0
 16 18  2  0
 18 19  1  0
 18 20  1  0
 20 21  2  0
 21 22  1  0
 22  6  1  0
 21 13  1  0
  1 23  1  0
  1 24  1  0
  1 25  1  0
  2 26  1  0
  3 27  1  0
  3 28  1  0
  3 29  1  0
  4 30  1  0
  4 31  1  0
  5 32  1  0
 10 33  1  0
 10 34  1  0
 10 35  1  0
 20 36  1  0
 22 37  1  0
M  END
>  <Unnamed: 0>  (4) 
25

>  <ID>  (4) 
TRAIN_0025

>  <Canonical_Smiles>  (4) 
CC(C)CNC1=C(C(=O)C)C(=O)c2c(Cl)c(Cl)c(Cl)cc2N1

>  <Inhibition>  (4) 
40.2

>  <TDC_conf_true_inhibitor>  (4) 
1

>  <TDC_conf_non_inhibitor>  (4) 
0

>  <split>  (4) 
1

$$$$
4
     RDKit          3D

 33 34  0  0  0  0  0  0  0  0999 V2000
    3.4497    2.2862    0.4341 C   0  0  0  0  0  0  0  0  0  0  0  0
    2.8835    1.5388   -1.1156 S   0  0  0  0  0  0  0  0  0  0  0  0
    1.4774    0.6661   -0.5150 C   0  0  0  0  0  0  0  0  0  0  0  0
    1.5583   -0.6366   -0.1762 C   0  0  0  0  0  0  0  0  0  0  0  0
    2.8363   -1.4006   -0.1968 C   0  0  0  0  0  0  0  0  0  0  0  0
    3.7741   -1.0810    0.5335 O   0  0  0  0  0  0  0  0  0  0  0  0
    2.9236   -2.5886   -1.1179 C   0  0  0  0  0  0  0  0  0  0  0  0
    0.3066   -1.3485    0.1992 C   0  0  0  0  0  0  0  0  0  0  0  0
    0.3461   -2.5416    0.4725 O   0  0  0  0  0  0  0  0  0  0  0  0
   -0.9877   -0.6058    0.2186 C   0  0  0  0  0  0  0  0  0  0  0  0
   -0.9518    0.7581   -0.1589 C   0  0  0  0  0  0  0  0  0  0  0  0
    0.2805    1.3498   -0.4673 N   0  0  0  0  0  0  0  0  0  0  0  0
   -2.1367    1.5205   -0.1356 C   0  0  0  0  0  0  0  0  0  0  0  0
   -3.3408    0.9039    0.2361 C   0  0  0  0  0  0  0  0  0  0  0  0
   -3.3740   -0.4447    0.5820 C   0  0  0  0  0  0  0  0  0  0  0  0
   -2.2032   -1.2242    0.5837 C   0  0  0  0  0  0  0  0  0  0  0  0
   -2.3124   -2.6820    0.9817 C   0  0  0  0  0  0  0  0  0  0  0  0
   -1.5939   -2.9978    2.0907 F   0  0  0  0  0  0  0  0  0  0  0  0
   -3.5995   -3.0297    1.2965 F   0  0  0  0  0  0  0  0  0  0  0  0
   -1.9621   -3.5413   -0.0114 F   0  0  0  0  0  0  0  0  0  0  0  0
   -2.1568    2.9972   -0.4498 C   0  0  0  0  0  0  0  0  0  0  0  0
   -1.1384    3.3918   -1.2677 F   0  0  0  0  0  0  0  0  0  0  0  0
   -3.3014    3.3925   -1.0729 F   0  0  0  0  0  0  0  0  0  0  0  0
   -2.0538    3.7640    0.6691 F   0  0  0  0  0  0  0  0  0  0  0  0
    3.6763    1.5217    1.1813 H   0  0  0  0  0  0  0  0  0  0  0  0
    4.3575    2.8644    0.2425 H   0  0  0  0  0  0  0  0  0  0  0  0
    2.6860    2.9608    0.8313 H   0  0  0  0  0  0  0  0  0  0  0  0
    3.8683   -2.5454   -1.6671 H   0  0  0  0  0  0  0  0  0  0  0  0
    2.1095   -2.5812   -1.8482 H   0  0  0  0  0  0  0  0  0  0  0  0
    2.8747   -3.5090   -0.5309 H   0  0  0  0  0  0  0  0  0  0  0  0
    0.3018    2.2494   -0.9476 H   0  0  0  0  0  0  0  0  0  0  0  0
   -4.2668    1.4801    0.2630 H   0  0  0  0  0  0  0  0  0  0  0  0
   -4.3311   -0.8873    0.8630 H   0  0  0  0  0  0  0  0  0  0  0  0
  1  2  1  0
  2  3  1  0
  3  4  2  0
  4  5  1  0
  5  6  2  0
  5  7  1  0
  4  8  1  0
  8  9  2  0
  8 10  1  0
 10 11  2  0
 11 12  1  0
 11 13  1  0
 13 14  2  0
 14 15  1  0
 15 16  2  0
 16 17  1  0
 17 18  1  0
 17 19  1  0
 17 20  1  0
 13 21  1  0
 21 22  1  0
 21 23  1  0
 21 24  1  0
 12  3  1  0
 16 10  1  0
  1 25  1  0
  1 26  1  0
  1 27  1  0
  7 28  1  0
  7 29  1  0
  7 30  1  0
 12 31  1  0
 14 32  1  0
 15 33  1  0
M  END
>  <Unnamed: 0>  (5) 
71

>  <ID>  (5) 
TRAIN_0071

>  <Canonical_Smiles>  (5) 
CSC1=C(C(=O)C)C(=O)c2c(N1)c(ccc2C(F)(F)F)C(F)(F)F

>  <Inhibition>  (5) 
48.2

>  <TDC_conf_true_inhibitor>  (5) 
0

>  <TDC_conf_non_inhibitor>  (5) 
1

>  <split>  (5) 
1

$$$$
5
     RDKit          3D

 34 35  0  0  0  0  0  0  0  0999 V2000
    2.2445    3.2086   -0.9299 C   0  0  0  0  0  0  0  0  0  0  0  0
    2.5010    1.9090   -0.2108 C   0  0  0  0  0  0  0  0  0  0  0  0
    3.6123    1.6534    0.2538 O   0  0  0  0  0  0  0  0  0  0  0  0
    1.3756    0.9401   -0.0853 C   0  0  0  0  0  0  0  0  0  0  0  0
    1.5087   -0.3741   -0.3306 C   0  0  0  0  0  0  0  0  0  0  0  0
    0.4703   -1.2768   -0.2623 N   0  0  0  0  0  0  0  0  0  0  0  0
   -0.8612   -0.8752   -0.0851 C   0  0  0  0  0  0  0  0  0  0  0  0
   -1.9031   -1.8234   -0.1181 C   0  0  0  0  0  0  0  0  0  0  0  0
   -1.6406   -3.2766   -0.4078 C   0  0  0  0  0  0  0  0  0  0  0  0
   -3.2173   -1.4037    0.1162 C   0  0  0  0  0  0  0  0  0  0  0  0
   -3.4983   -0.0688    0.4021 C   0  0  0  0  0  0  0  0  0  0  0  0
   -2.4745    0.8880    0.4666 C   0  0  0  0  0  0  0  0  0  0  0  0
   -2.8534    2.3078    0.7899 C   0  0  0  0  0  0  0  0  0  0  0  0
   -1.1451    0.4734    0.2304 C   0  0  0  0  0  0  0  0  0  0  0  0
    0.0132    1.4240    0.2873 C   0  0  0  0  0  0  0  0  0  0  0  0
   -0.1316    2.5940    0.6289 O   0  0  0  0  0  0  0  0  0  0  0  0
    3.0821   -1.0703   -0.8886 S   0  0  0  0  0  4  0  0  0  0  0  0
    2.6909   -2.3447   -1.5872 O   0  0  0  0  0  0  0  0  0  0  0  0
    3.6968   -1.5433    0.7527 C   0  0  0  0  0  0  0  0  0  0  0  0
    2.0729    4.0044   -0.2012 H   0  0  0  0  0  0  0  0  0  0  0  0
    3.1170    3.4534   -1.5429 H   0  0  0  0  0  0  0  0  0  0  0  0
    1.3849    3.1252   -1.6005 H   0  0  0  0  0  0  0  0  0  0  0  0
    0.6562   -2.1534   -0.7519 H   0  0  0  0  0  0  0  0  0  0  0  0
   -1.2447   -3.3945   -1.4216 H   0  0  0  0  0  0  0  0  0  0  0  0
   -0.9270   -3.6865    0.3143 H   0  0  0  0  0  0  0  0  0  0  0  0
   -2.5561   -3.8737   -0.3373 H   0  0  0  0  0  0  0  0  0  0  0  0
   -4.0383   -2.1179    0.0842 H   0  0  0  0  0  0  0  0  0  0  0  0
   -4.5331    0.2194    0.5817 H   0  0  0  0  0  0  0  0  0  0  0  0
   -3.9383    2.4190    0.8966 H   0  0  0  0  0  0  0  0  0  0  0  0
   -2.5446    2.9814   -0.0155 H   0  0  0  0  0  0  0  0  0  0  0  0
   -2.4054    2.6179    1.7390 H   0  0  0  0  0  0  0  0  0  0  0  0
    3.8299   -0.6601    1.3799 H   0  0  0  0  0  0  0  0  0  0  0  0
    4.6608   -2.0418    0.6258 H   0  0  0  0  0  0  0  0  0  0  0  0
    2.9953   -2.2344    1.2270 H   0  0  0  0  0  0  0  0  0  0  0  0
  1  2  1  0
  2  3  2  0
  2  4  1  0
  4  5  2  0
  5  6  1  0
  6  7  1  0
  7  8  2  0
  8  9  1  0
  8 10  1  0
 10 11  2  0
 11 12  1  0
 12 13  1  0
 12 14  2  0
 14 15  1  0
 15 16  2  0
  5 17  1  0
 17 18  2  0
 17 19  1  0
 15  4  1  0
 14  7  1  0
  1 20  1  0
  1 21  1  0
  1 22  1  0
  6 23  1  0
  9 24  1  0
  9 25  1  0
  9 26  1  0
 10 27  1  0
 11 28  1  0
 13 29  1  0
 13 30  1  0
 13 31  1  0
 19 32  1  0
 19 33  1  0
 19 34  1  0
M  END
>  <Unnamed: 0>  (6) 
111

>  <ID>  (6) 
TRAIN_0111

>  <Canonical_Smiles>  (6) 
CC(=O)C1=C(Nc2c(C)ccc(C)c2C1=O)S(=O)C

>  <Inhibition>  (6) 
19.8

>  <TDC_conf_true_inhibitor>  (6) 
0

>  <TDC_conf_non_inhibitor>  (6) 
1

>  <split>  (6) 
1

$$$$
6
     RDKit          3D

 46 47  0  0  0  0  0  0  0  0999 V2000
    5.6376   -0.2990    0.1879 C   0  0  0  0  0  0  0  0  0  0  0  0
    4.9144   -1.4513   -0.4913 C   0  0  0  0  0  0  0  0  0  0  0  0
    3.7058   -1.9716    0.2938 C   0  0  0  0  0  0  0  0  0  0  0  0
    2.6110   -0.9494    0.5957 C   0  0  0  0  0  0  0  0  0  0  0  0
    1.7331   -0.4301   -0.9099 S   0  0  0  0  0  4  0  0  0  0  0  0
    2.5577    0.5733   -1.6564 O   0  0  0  0  0  0  0  0  0  0  0  0
    0.3742    0.4708   -0.1297 C   0  0  0  0  0  0  0  0  0  0  0  0
    0.5013    1.7581    0.2453 C   0  0  0  0  0  0  0  0  0  0  0  0
    1.7728    2.5208    0.1974 C   0  0  0  0  0  0  0  0  0  0  0  0
    2.6597    2.2943    1.0202 O   0  0  0  0  0  0  0  0  0  0  0  0
    1.8931    3.6102   -0.8333 C   0  0  0  0  0  0  0  0  0  0  0  0
   -0.7178    2.4604    0.7271 C   0  0  0  0  0  0  0  0  0  0  0  0
   -0.6838    3.6474    1.0387 O   0  0  0  0  0  0  0  0  0  0  0  0
   -1.9913    1.7046    0.7979 C   0  0  0  0  0  0  0  0  0  0  0  0
   -3.1488    2.3474    1.2447 C   0  0  0  0  0  0  0  0  0  0  0  0
   -4.3449    1.6441    1.2957 C   0  0  0  0  0  0  0  0  0  0  0  0
   -4.3786    0.2997    0.9212 C   0  0  0  0  0  0  0  0  0  0  0  0
   -3.2181   -0.3759    0.4902 C   0  0  0  0  0  0  0  0  0  0  0  0
   -3.2903   -1.8536    0.1142 C   0  0  0  0  0  0  0  0  0  0  0  0
   -4.2361   -2.6844    0.9916 C   0  0  0  0  0  0  0  0  0  0  0  0
   -3.6653   -2.0045   -1.3618 C   0  0  0  0  0  0  0  0  0  0  0  0
   -2.0134    0.3587    0.3868 C   0  0  0  0  0  0  0  0  0  0  0  0
   -0.8101   -0.2392   -0.0276 N   0  0  0  0  0  0  0  0  0  0  0  0
    5.0211    0.6041    0.2107 H   0  0  0  0  0  0  0  0  0  0  0  0
    5.9139   -0.5580    1.2148 H   0  0  0  0  0  0  0  0  0  0  0  0
    6.5548   -0.0575   -0.3589 H   0  0  0  0  0  0  0  0  0  0  0  0
    5.6226   -2.2799   -0.6146 H   0  0  0  0  0  0  0  0  0  0  0  0
    4.6176   -1.1514   -1.5017 H   0  0  0  0  0  0  0  0  0  0  0  0
    4.0660   -2.3743    1.2492 H   0  0  0  0  0  0  0  0  0  0  0  0
    3.2759   -2.8200   -0.2536 H   0  0  0  0  0  0  0  0  0  0  0  0
    1.8702   -1.4212    1.2511 H   0  0  0  0  0  0  0  0  0  0  0  0
    3.0128   -0.0845    1.1224 H   0  0  0  0  0  0  0  0  0  0  0  0
    1.1140    3.5152   -1.5949 H   0  0  0  0  0  0  0  0  0  0  0  0
    1.8014    4.5835   -0.3450 H   0  0  0  0  0  0  0  0  0  0  0  0
    2.8645    3.5298   -1.3287 H   0  0  0  0  0  0  0  0  0  0  0  0
   -3.1201    3.3923    1.5464 H   0  0  0  0  0  0  0  0  0  0  0  0
   -5.2530    2.1390    1.6325 H   0  0  0  0  0  0  0  0  0  0  0  0
   -5.3356   -0.2149    0.9747 H   0  0  0  0  0  0  0  0  0  0  0  0
   -2.3012   -2.3021    0.2652 H   0  0  0  0  0  0  0  0  0  0  0  0
   -4.1185   -3.7514    0.7709 H   0  0  0  0  0  0  0  0  0  0  0  0
   -5.2884   -2.4349    0.8208 H   0  0  0  0  0  0  0  0  0  0  0  0
   -4.0173   -2.5376    2.0549 H   0  0  0  0  0  0  0  0  0  0  0  0
   -3.6676   -3.0596   -1.6557 H   0  0  0  0  0  0  0  0  0  0  0  0
   -2.9529   -1.4801   -2.0081 H   0  0  0  0  0  0  0  0  0  0  0  0
   -4.6613   -1.5955   -1.5662 H   0  0  0  0  0  0  0  0  0  0  0  0
   -0.8812   -1.0717   -0.6017 H   0  0  0  0  0  0  0  0  0  0  0  0
  1  2  1  0
  2  3  1  0
  3  4  1  0
  4  5  1  0
  5  6  2  0
  5  7  1  0
  7  8  2  0
  8  9  1  0
  9 10  2  0
  9 11  1  0
  8 12  1  0
 12 13  2  0
 12 14  1  0
 14 15  2  0
 15 16  1  0
 16 17  2  0
 17 18  1  0
 18 19  1  0
 19 20  1  0
 19 21  1  0
 18 22  2  0
 22 23  1  0
 23  7  1  0
 22 14  1  0
  1 24  1  0
  1 25  1  0
  1 26  1  0
  2 27  1  0
  2 28  1  0
  3 29  1  0
  3 30  1  0
  4 31  1  0
  4 32  1  0
 11 33  1  0
 11 34  1  0
 11 35  1  0
 15 36  1  0
 16 37  1  0
 17 38  1  0
 19 39  1  0
 20 40  1  0
 20 41  1  0
 20 42  1  0
 21 43  1  0
 21 44  1  0
 21 45  1  0
 23 46  1  0
M  END
>  <Unnamed: 0>  (7) 
290

>  <ID>  (7) 
TRAIN_0290

>  <Canonical_Smiles>  (7) 
CCCCS(=O)C1=C(C(=O)C)C(=O)c2cccc(C(C)C)c2N1

>  <Inhibition>  (7) 
32.3

>  <TDC_conf_true_inhibitor>  (7) 
1

>  <TDC_conf_non_inhibitor>  (7) 
0

>  <split>  (7) 
1

$$$$
7
     RDKit          3D

 31 32  0  0  0  0  0  0  0  0999 V2000
   -2.1552   -2.4348   -0.4274 C   0  0  0  0  0  0  0  0  0  0  0  0
   -1.8211   -1.2686    0.4040 N   0  0  0  0  0  0  0  0  0  0  0  0
   -3.0065   -0.6164    0.9690 C   0  0  0  0  0  0  0  0  0  0  0  0
   -0.6565   -0.5588    0.0987 C   0  0  0  0  0  0  0  0  0  0  0  0
   -0.5890    0.6180   -0.5737 C   0  0  0  0  0  0  0  0  0  0  0  0
   -1.7932    1.2676   -1.1576 C   0  0  0  0  0  0  0  0  0  0  0  0
   -2.5402    0.6648   -1.9293 O   0  0  0  0  0  0  0  0  0  0  0  0
   -2.0642    2.7007   -0.7793 C   0  0  0  0  0  0  0  0  0  0  0  0
    0.7353    1.2838   -0.7459 C   0  0  0  0  0  0  0  0  0  0  0  0
    0.8442    2.3610   -1.3245 O   0  0  0  0  0  0  0  0  0  0  0  0
    1.9368    0.6263   -0.1898 C   0  0  0  0  0  0  0  0  0  0  0  0
    3.1981    1.2164   -0.3281 C   0  0  0  0  0  0  0  0  0  0  0  0
    4.3111    0.5742    0.2057 C   0  0  0  0  0  0  0  0  0  0  0  0
    5.8675    1.2879    0.0440 Cl  0  0  0  0  0  0  0  0  0  0  0  0
    4.1769   -0.6434    0.8692 C   0  0  0  0  0  0  0  0  0  0  0  0
    2.9120   -1.2213    0.9995 C   0  0  0  0  0  0  0  0  0  0  0  0
    2.7798   -2.7350    1.8239 Cl  0  0  0  0  0  0  0  0  0  0  0  0
    1.7723   -0.5890    0.4803 C   0  0  0  0  0  0  0  0  0  0  0  0
    0.4987   -1.1543    0.5592 N   0  0  0  0  0  0  0  0  0  0  0  0
   -1.2670   -3.0444   -0.6263 H   0  0  0  0  0  0  0  0  0  0  0  0
   -2.5810   -2.1168   -1.3848 H   0  0  0  0  0  0  0  0  0  0  0  0
   -2.8831   -3.0748    0.0829 H   0  0  0  0  0  0  0  0  0  0  0  0
   -3.5324   -1.3145    1.6296 H   0  0  0  0  0  0  0  0  0  0  0  0
   -2.7284    0.2533    1.5743 H   0  0  0  0  0  0  0  0  0  0  0  0
   -3.7053   -0.2996    0.1890 H   0  0  0  0  0  0  0  0  0  0  0  0
   -3.1299    2.8154   -0.5610 H   0  0  0  0  0  0  0  0  0  0  0  0
   -1.5088    2.9832    0.1194 H   0  0  0  0  0  0  0  0  0  0  0  0
   -1.7822    3.3570   -1.6062 H   0  0  0  0  0  0  0  0  0  0  0  0
    3.3058    2.1652   -0.8497 H   0  0  0  0  0  0  0  0  0  0  0  0
    5.0517   -1.1410    1.2799 H   0  0  0  0  0  0  0  0  0  0  0  0
    0.3539   -1.9622    1.1552 H   0  0  0  0  0  0  0  0  0  0  0  0
  1  2  1  0
  2  3  1  0
  2  4  1  0
  4  5  2  0
  5  6  1  0
  6  7  2  0
  6  8  1  0
  5  9  1  0
  9 10  2  0
  9 11  1  0
 11 12  2  0
 12 13  1  0
 13 14  1  0
 13 15  2  0
 15 16  1  0
 16 17  1  0
 16 18  2  0
 18 19  1  0
 19  4  1  0
 18 11  1  0
  1 20  1  0
  1 21  1  0
  1 22  1  0
  3 23  1  0
  3 24  1  0
  3 25  1  0
  8 26  1  0
  8 27  1  0
  8 28  1  0
 12 29  1  0
 15 30  1  0
 19 31  1  0
M  END
>  <Unnamed: 0>  (8) 
302

>  <ID>  (8) 
TRAIN_0302

>  <Canonical_Smiles>  (8) 
CN(C)C1=C(C(=O)C)C(=O)c2cc(Cl)cc(Cl)c2N1

>  <Inhibition>  (8) 
0.0

>  <TDC_conf_true_inhibitor>  (8) 
0

>  <TDC_conf_non_inhibitor>  (8) 
1

>  <split>  (8) 
1

$$$$
8
     RDKit          3D

 37 38  0  0  0  0  0  0  0  0999 V2000
    1.7725   -3.6747    0.1456 C   0  0  0  0  0  0  0  0  0  0  0  0
    0.7072   -2.7301   -0.3500 C   0  0  0  0  0  0  0  0  0  0  0  0
   -0.3614   -3.1726   -0.7837 O   0  0  0  0  0  0  0  0  0  0  0  0
    0.9555   -1.2531   -0.2660 C   0  0  0  0  0  0  0  0  0  0  0  0
   -0.0746   -0.3908   -0.0573 C   0  0  0  0  0  0  0  0  0  0  0  0
   -1.3867   -0.8437    0.0645 N   0  0  0  0  0  0  0  0  0  0  0  0
   -2.6747   -0.1514   -0.0660 C   0  0  0  0  0  0  0  0  0  0  0  0
   -2.9815    0.6596    1.1998 C   0  0  0  0  0  0  0  0  0  0  0  0
   -3.7645   -1.2374   -0.2017 C   0  0  0  0  0  0  0  0  0  0  0  0
   -2.7203    0.7269   -1.3222 C   0  0  0  0  0  0  0  0  0  0  0  0
    0.1898    0.9523    0.0529 N   0  0  0  0  0  0  0  0  0  0  0  0
    1.4721    1.5113    0.1526 C   0  0  0  0  0  0  0  0  0  0  0  0
    1.6397    2.8834    0.4164 C   0  0  0  0  0  0  0  0  0  0  0  0
    0.1401    4.0187    0.6929 Br  0  0  0  0  0  0  0  0  0  0  0  0
    2.9096    3.4488    0.4930 C   0  0  0  0  0  0  0  0  0  0  0  0
    4.0301    2.6455    0.3013 C   0  0  0  0  0  0  0  0  0  0  0  0
    3.8884    1.2792    0.0196 C   0  0  0  0  0  0  0  0  0  0  0  0
    5.5205    0.3227   -0.1745 Br  0  0  0  0  0  0  0  0  0  0  0  0
    2.6049    0.7096   -0.0720 C   0  0  0  0  0  0  0  0  0  0  0  0
    2.3434   -0.7174   -0.4090 C   0  0  0  0  0  0  0  0  0  0  0  0
    3.2338   -1.4525   -0.8211 O   0  0  0  0  0  0  0  0  0  0  0  0
    1.2912   -4.5654    0.5613 H   0  0  0  0  0  0  0  0  0  0  0  0
    2.4210   -3.9700   -0.6824 H   0  0  0  0  0  0  0  0  0  0  0  0
    2.3589   -3.2199    0.9484 H   0  0  0  0  0  0  0  0  0  0  0  0
   -1.4558   -1.8284   -0.2348 H   0  0  0  0  0  0  0  0  0  0  0  0
   -2.3038    1.5053    1.3364 H   0  0  0  0  0  0  0  0  0  0  0  0
   -2.9032    0.0341    2.0968 H   0  0  0  0  0  0  0  0  0  0  0  0
   -3.9976    1.0695    1.1661 H   0  0  0  0  0  0  0  0  0  0  0  0
   -3.7631   -1.9103    0.6640 H   0  0  0  0  0  0  0  0  0  0  0  0
   -3.6008   -1.8540   -1.0936 H   0  0  0  0  0  0  0  0  0  0  0  0
   -4.7635   -0.7940   -0.2812 H   0  0  0  0  0  0  0  0  0  0  0  0
   -3.7272    1.1287   -1.4838 H   0  0  0  0  0  0  0  0  0  0  0  0
   -2.4406    0.1553   -2.2146 H   0  0  0  0  0  0  0  0  0  0  0  0
   -2.0439    1.5840   -1.2567 H   0  0  0  0  0  0  0  0  0  0  0  0
   -0.5728    1.5266    0.3821 H   0  0  0  0  0  0  0  0  0  0  0  0
    3.0387    4.5078    0.7040 H   0  0  0  0  0  0  0  0  0  0  0  0
    5.0186    3.0965    0.3731 H   0  0  0  0  0  0  0  0  0  0  0  0
  1  2  1  0
  2  3  2  0
  2  4  1  0
  4  5  2  0
  5  6  1  0
  6  7  1  0
  7  8  1  0
  7  9  1  0
  7 10  1  0
  5 11  1  0
 11 12  1  0
 12 13  2  0
 13 14  1  0
 13 15  1  0
 15 16  2  0
 16 17  1  0
 17 18  1  0
 17 19  2  0
 19 20  1  0
 20 21  2  0
 20  4  1  0
 19 12  1  0
  1 22  1  0
  1 23  1  0
  1 24  1  0
  6 25  1  0
  8 26  1  0
  8 27  1  0
  8 28  1  0
  9 29  1  0
  9 30  1  0
  9 31  1  0
 10 32  1  0
 10 33  1  0
 10 34  1  0
 11 35  1  0
 15 36  1  0
 16 37  1  0
M  END
>  <Unnamed: 0>  (9) 
315

>  <ID>  (9) 
TRAIN_0315

>  <Canonical_Smiles>  (9) 
CC(=O)C1=C(NC(C)(C)C)Nc2c(Br)ccc(Br)c2C1=O

>  <Inhibition>  (9) 
5.83

>  <TDC_conf_true_inhibitor>  (9) 
0

>  <TDC_conf_non_inhibitor>  (9) 
1

>  <split>  (9) 
1

$$$$
9
     RDKit          3D

 24 25  0  0  0  0  0  0  0  0999 V2000
    4.3393   -0.3183   -0.7646 O   0  0  0  0  0  0  0  0  0  0  0  0
    3.2597    0.4790   -0.7314 C   0  0  0  0  0  0  0  0  0  0  0  0
    3.3298    1.6578   -1.0390 O   0  0  0  0  0  0  0  0  0  0  0  0
    2.0023   -0.1986   -0.2989 C   0  0  0  0  0  0  0  0  0  0  0  0
    2.0036   -1.5041   -0.0092 C   0  0  0  0  0  0  0  0  0  0  0  0
    0.7321   -2.1509    0.3855 C   0  0  0  0  0  0  0  0  0  0  0  0
    0.7687   -3.3300    0.7118 O   0  0  0  0  0  0  0  0  0  0  0  0
   -0.5256   -1.3381    0.3595 C   0  0  0  0  0  0  0  0  0  0  0  0
   -1.7910   -1.8793    0.6385 C   0  0  0  0  0  0  0  0  0  0  0  0
   -2.0833   -3.5381    1.0246 Cl  0  0  0  0  0  0  0  0  0  0  0  0
   -2.9271   -1.0623    0.5949 C   0  0  0  0  0  0  0  0  0  0  0  0
   -2.8200    0.2966    0.2979 C   0  0  0  0  0  0  0  0  0  0  0  0
   -4.2937    1.1944    0.1972 Cl  0  0  0  0  0  0  0  0  0  0  0  0
   -1.5623    0.8536    0.0457 C   0  0  0  0  0  0  0  0  0  0  0  0
   -1.3976    2.2912   -0.2335 C   0  0  0  0  0  0  0  0  0  0  0  0
   -0.7179    2.7538   -1.1308 O   0  0  0  0  0  0  0  0  0  0  0  0
   -1.9729    3.0596    0.7035 O   0  0  0  0  0  0  0  0  0  0  0  0
   -0.4091    0.0346    0.0277 C   0  0  0  0  0  0  0  0  0  0  0  0
    0.8669    0.5791   -0.2238 N   0  0  0  0  0  0  0  0  0  0  0  0
    5.0626    0.2726   -1.0627 H   0  0  0  0  0  0  0  0  0  0  0  0
    2.8801   -2.1386   -0.0480 H   0  0  0  0  0  0  0  0  0  0  0  0
   -3.9081   -1.4939    0.7910 H   0  0  0  0  0  0  0  0  0  0  0  0
   -1.7678    3.9829    0.4440 H   0  0  0  0  0  0  0  0  0  0  0  0
    0.9314    1.4970   -0.6801 H   0  0  0  0  0  0  0  0  0  0  0  0
  1  2  1  0
  2  3  2  0
  2  4  1  0
  4  5  2  0
  5  6  1  0
  6  7  2  0
  6  8  1  0
  8  9  2  0
  9 10  1  0
  9 11  1  0
 11 12  2  0
 12 13  1  0
 12 14  1  0
 14 15  1  0
 15 16  2  0
 15 17  1  0
 14 18  2  0
 18 19  1  0
 19  4  1  0
 18  8  1  0
  1 20  1  0
  5 21  1  0
 11 22  1  0
 17 23  1  0
 19 24  1  0
M  END
>  <Unnamed: 0>  (10) 
525

>  <ID>  (10) 
TRAIN_0525

>  <Canonical_Smiles>  (10) 
OC(=O)C1=CC(=O)c2c(Cl)cc(Cl)c(C(=O)O)c2N1

>  <Inhibition>  (10) 
22.3

>  <TDC_conf_true_inhibitor>  (10) 
0

>  <TDC_conf_non_inhibitor>  (10) 
1

>  <split>  (10) 
1

$$$$
10
     RDKit          3D

 38 38  0  0  0  0  0  0  0  0999 V2000
    5.9263   -0.9208    1.2158 C   0  0  0  0  0  0  0  0  0  0  0  0
    5.4715   -1.2323   -0.1977 C   0  0  0  0  0  0  0  0  0  0  0  0
    4.0403   -1.1988   -0.2761 O   0  0  0  0  0  0  0  0  0  0  0  0
    3.4858    0.0251   -0.5137 C   0  0  0  0  0  0  0  0  0  0  0  0
    4.1220    1.0627   -0.6555 O   0  0  0  0  0  0  0  0  0  0  0  0
    2.0304   -0.0350   -0.5788 C   0  0  0  0  0  0  0  0  0  0  0  0
    1.1700   -1.1565   -0.4362 C   0  0  0  0  0  0  0  0  0  0  0  0
   -0.1561   -0.7508   -0.5661 C   0  0  0  0  0  0  0  0  0  0  0  0
   -1.3005   -1.6410   -0.4588 C   0  0  0  0  0  0  0  0  0  0  0  0
   -1.2231   -2.8516   -0.2928 O   0  0  0  0  0  0  0  0  0  0  0  0
   -2.4733   -0.9561   -0.5478 O   0  0  0  0  0  0  0  0  0  0  0  0
   -3.6689   -1.7402   -0.4193 C   0  0  0  0  0  0  0  0  0  0  0  0
   -4.0510   -1.8669    1.0433 C   0  0  0  0  0  0  0  0  0  0  0  0
   -0.1094    0.6130   -0.7996 N   0  0  0  0  0  0  0  0  0  0  0  0
   -1.2221    1.5214   -1.0408 C   0  0  0  0  0  0  0  0  0  0  0  0
   -1.8561    2.0208    0.2558 C   0  0  0  0  0  0  0  0  0  0  0  0
   -3.0921    2.8680   -0.0334 C   0  0  0  0  0  0  0  0  0  0  0  0
   -3.7170    3.3329    1.2114 C   0  0  0  0  0  0  0  0  0  0  0  0
   -4.2143    3.6979    2.1936 N   0  0  0  0  0  0  0  0  0  0  0  0
    1.1969    1.0431   -0.8006 C   0  0  0  0  0  0  0  0  0  0  0  0
    5.6279    0.0900    1.5112 H   0  0  0  0  0  0  0  0  0  0  0  0
    5.4636   -1.6107    1.9292 H   0  0  0  0  0  0  0  0  0  0  0  0
    7.0136   -1.0024    1.3002 H   0  0  0  0  0  0  0  0  0  0  0  0
    5.9282   -0.5522   -0.9259 H   0  0  0  0  0  0  0  0  0  0  0  0
    5.7828   -2.2466   -0.4682 H   0  0  0  0  0  0  0  0  0  0  0  0
    1.4810   -2.1787   -0.2475 H   0  0  0  0  0  0  0  0  0  0  0  0
   -4.4581   -1.2076   -0.9600 H   0  0  0  0  0  0  0  0  0  0  0  0
   -3.5604   -2.7217   -0.8948 H   0  0  0  0  0  0  0  0  0  0  0  0
   -4.1590   -0.8771    1.4990 H   0  0  0  0  0  0  0  0  0  0  0  0
   -3.2753   -2.3941    1.6075 H   0  0  0  0  0  0  0  0  0  0  0  0
   -4.9935   -2.4108    1.1525 H   0  0  0  0  0  0  0  0  0  0  0  0
   -0.8323    2.3714   -1.6152 H   0  0  0  0  0  0  0  0  0  0  0  0
   -1.9385    1.0194   -1.6977 H   0  0  0  0  0  0  0  0  0  0  0  0
   -1.1213    2.6094    0.8212 H   0  0  0  0  0  0  0  0  0  0  0  0
   -2.1268    1.1782    0.9041 H   0  0  0  0  0  0  0  0  0  0  0  0
   -2.8164    3.7314   -0.6498 H   0  0  0  0  0  0  0  0  0  0  0  0
   -3.8192    2.2813   -0.6068 H   0  0  0  0  0  0  0  0  0  0  0  0
    1.4448    2.0859   -0.9617 H   0  0  0  0  0  0  0  0  0  0  0  0
  1  2  1  0
  2  3  1  0
  3  4  1  0
  4  5  2  0
  4  6  1  0
  6  7  1  0
  7  8  2  0
  8  9  1  0
  9 10  2  0
  9 11  1  0
 11 12  1  0
 12 13  1  0
  8 14  1  0
 14 15  1  0
 15 16  1  0
 16 17  1  0
 17 18  1  0
 18 19  3  0
 14 20  1  0
 20  6  2  0
  1 21  1  0
  1 22  1  0
  1 23  1  0
  2 24  1  0
  2 25  1  0
  7 26  1  0
 12 27  1  0
 12 28  1  0
 13 29  1  0
 13 30  1  0
 13 31  1  0
 15 32  1  0
 15 33  1  0
 16 34  1  0
 16 35  1  0
 17 36  1  0
 17 37  1  0
 20 38  1  0
M  END
>  <Unnamed: 0>  (11) 
36

>  <ID>  (11) 
TRAIN_0036

>  <Canonical_Smiles>  (11) 
CCOC(=O)c1cc(C(=O)OCC)n(CCCC#N)c1

>  <Inhibition>  (11) 
0.0

>  <TDC_conf_true_inhibitor>  (11) 
0

>  <TDC_conf_non_inhibitor>  (11) 
1

>  <split>  (11) 
1

$$$$
11
     RDKit          3D

 49 49  0  0  0  0  0  0  0  0999 V2000
    7.8131   -0.4742    0.2795 C   0  0  0  0  0  0  0  0  0  0  0  0
    6.8911   -1.0371   -0.7859 C   0  0  0  0  0  0  0  0  0  0  0  0
    5.6284   -0.3559   -0.7586 O   0  0  0  0  0  0  0  0  0  0  0  0
    4.7072   -0.8555    0.1173 C   0  0  0  0  0  0  0  0  0  0  0  0
    4.8899   -1.8190    0.8485 O   0  0  0  0  0  0  0  0  0  0  0  0
    3.4927   -0.0709    0.0319 C   0  0  0  0  0  0  0  0  0  0  0  0
    3.3264    0.9741   -0.8469 N   0  0  0  0  0  0  0  0  0  0  0  0
    2.0782    1.5194   -0.7259 C   0  0  0  0  0  0  0  0  0  0  0  0
    1.6480    2.6670   -1.5697 C   0  0  0  0  0  0  0  0  0  0  0  0
    1.3928    0.8148    0.2552 C   0  0  0  0  0  0  0  0  0  0  0  0
    0.0077    1.1001    0.6469 C   0  0  0  0  0  0  0  0  0  0  0  0
   -0.4702    2.2291    0.6177 O   0  0  0  0  0  0  0  0  0  0  0  0
   -0.7240   -0.0173    0.9804 N   0  0  0  0  0  0  0  0  0  0  0  0
   -2.1416    0.0563    1.2837 C   0  0  0  0  0  0  0  0  0  0  0  0
   -3.0067    0.2023    0.0157 C   0  0  0  0  0  0  0  0  0  0  0  0
   -4.4580    0.1813    0.2942 N   0  0  0  0  0  0  0  0  0  0  0  0
   -5.2105    0.8971   -0.7507 C   0  0  0  0  0  0  0  0  0  0  0  0
   -5.1957    0.2718   -2.1428 C   0  0  0  0  0  0  0  0  0  0  0  0
   -4.9427   -1.1834    0.5539 C   0  0  0  0  0  0  0  0  0  0  0  0
   -6.4012   -1.2418    0.9988 C   0  0  0  0  0  0  0  0  0  0  0  0
    2.3142   -0.1710    0.7697 C   0  0  0  0  0  0  0  0  0  0  0  0
    2.0780   -1.1141    1.9035 C   0  0  0  0  0  0  0  0  0  0  0  0
    8.7989   -0.9448    0.2272 H   0  0  0  0  0  0  0  0  0  0  0  0
    7.9305    0.6072    0.1537 H   0  0  0  0  0  0  0  0  0  0  0  0
    7.4017   -0.6353    1.2809 H   0  0  0  0  0  0  0  0  0  0  0  0
    7.3255   -0.8638   -1.7760 H   0  0  0  0  0  0  0  0  0  0  0  0
    6.7640   -2.1203   -0.6769 H   0  0  0  0  0  0  0  0  0  0  0  0
    4.0446    1.2829   -1.4906 H   0  0  0  0  0  0  0  0  0  0  0  0
    2.3730    2.8763   -2.3632 H   0  0  0  0  0  0  0  0  0  0  0  0
    1.5445    3.5696   -0.9592 H   0  0  0  0  0  0  0  0  0  0  0  0
    0.6849    2.4553   -2.0451 H   0  0  0  0  0  0  0  0  0  0  0  0
   -0.3211   -0.9208    0.7771 H   0  0  0  0  0  0  0  0  0  0  0  0
   -2.3796   -0.8602    1.8304 H   0  0  0  0  0  0  0  0  0  0  0  0
   -2.3131    0.9068    1.9536 H   0  0  0  0  0  0  0  0  0  0  0  0
   -2.7384   -0.5757   -0.7114 H   0  0  0  0  0  0  0  0  0  0  0  0
   -2.7333    1.1580   -0.4503 H   0  0  0  0  0  0  0  0  0  0  0  0
   -4.8226    1.9216   -0.8247 H   0  0  0  0  0  0  0  0  0  0  0  0
   -6.2506    1.0277   -0.4304 H   0  0  0  0  0  0  0  0  0  0  0  0
   -4.1778    0.1709   -2.5314 H   0  0  0  0  0  0  0  0  0  0  0  0
   -5.6708   -0.7135   -2.1506 H   0  0  0  0  0  0  0  0  0  0  0  0
   -5.7518    0.9088   -2.8389 H   0  0  0  0  0  0  0  0  0  0  0  0
   -4.3574   -1.6289    1.3657 H   0  0  0  0  0  0  0  0  0  0  0  0
   -4.8012   -1.8314   -0.3193 H   0  0  0  0  0  0  0  0  0  0  0  0
   -7.0868   -0.9782    0.1880 H   0  0  0  0  0  0  0  0  0  0  0  0
   -6.6515   -2.2587    1.3194 H   0  0  0  0  0  0  0  0  0  0  0  0
   -6.5836   -0.5705    1.8445 H   0  0  0  0  0  0  0  0  0  0  0  0
    1.7468   -2.0861    1.5251 H   0  0  0  0  0  0  0  0  0  0  0  0
    1.3202   -0.7295    2.5925 H   0  0  0  0  0  0  0  0  0  0  0  0
    2.9878   -1.2611    2.4935 H   0  0  0  0  0  0  0  0  0  0  0  0
  1  2  1  0
  2  3  1  0
  3  4  1  0
  4  5  2  0
  4  6  1  0
  6  7  1  0
  7  8  1  0
  8  9  1  0
  8 10  2  0
 10 11  1  0
 11 12  2  0
 11 13  1  0
 13 14  1  0
 14 15  1  0
 15 16  1  0
 16 17  1  0
 17 18  1  0
 16 19  1  0
 19 20  1  0
 10 21  1  0
 21 22  1  0
 21  6  2  0
  1 23  1  0
  1 24  1  0
  1 25  1  0
  2 26  1  0
  2 27  1  0
  7 28  1  0
  9 29  1  0
  9 30  1  0
  9 31  1  0
 13 32  1  0
 14 33  1  0
 14 34  1  0
 15 35  1  0
 15 36  1  0
 17 37  1  0
 17 38  1  0
 18 39  1  0
 18 40  1  0
 18 41  1  0
 19 42  1  0
 19 43  1  0
 20 44  1  0
 20 45  1  0
 20 46  1  0
 22 47  1  0
 22 48  1  0
 22 49  1  0
M  END
>  <Unnamed: 0>  (12) 
1010

>  <ID>  (12) 
TRAIN_1010

>  <Canonical_Smiles>  (12) 
CCOC(=O)c1[nH]c(C)c(C(=O)NCCN(CC)CC)c1C

>  <Inhibition>  (12) 
14.6

>  <TDC_conf_true_inhibitor>  (12) 
0

>  <TDC_conf_non_inhibitor>  (12) 
1

>  <split>  (12) 
1

$$$$
12
     RDKit          3D

 52 54  0  0  0  0  0  0  0  0999 V2000
   -3.3335   -0.8918    5.0078 C   0  0  0  0  0  0  0  0  0  0  0  0
   -2.8433   -0.6331    3.6153 C   0  0  0  0  0  0  0  0  0  0  0  0
   -1.5433   -0.9735    3.2432 C   0  0  0  0  0  0  0  0  0  0  0  0
   -1.0817   -0.7023    1.9486 C   0  0  0  0  0  0  0  0  0  0  0  0
   -1.8849   -0.0611    0.9862 C   0  0  0  0  0  0  0  0  0  0  0  0
   -3.1925    0.2651    1.3832 C   0  0  0  0  0  0  0  0  0  0  0  0
   -3.6621   -0.0037    2.6771 C   0  0  0  0  0  0  0  0  0  0  0  0
   -1.3927    0.1734   -0.3286 N   0  0  0  0  0  0  0  0  0  0  0  0
   -2.0367    1.2549   -1.1159 C   0  0  0  0  0  0  0  0  0  0  0  0
   -3.2263    0.8000   -1.9441 C   0  0  0  0  0  0  0  0  0  0  0  0
   -4.0561    1.7776   -2.5203 C   0  0  0  0  0  0  0  0  0  0  0  0
   -5.1494    1.4145   -3.3093 C   0  0  0  0  0  0  0  0  0  0  0  0
   -5.4262    0.0695   -3.5394 C   0  0  0  0  0  0  0  0  0  0  0  0
   -4.6096   -0.9120   -2.9832 C   0  0  0  0  0  0  0  0  0  0  0  0
   -3.5150   -0.5500   -2.1948 C   0  0  0  0  0  0  0  0  0  0  0  0
   -0.0281    0.0605   -0.4871 N   0  0  0  0  0  0  0  0  0  0  0  0
    0.3229   -0.5961   -1.5491 C   0  0  0  0  0  0  0  0  0  0  0  0
    1.7855   -0.8022   -1.8521 C   0  0  0  0  0  0  0  0  0  0  0  0
    2.0900   -1.3876   -2.8800 O   0  0  0  0  0  0  0  0  0  0  0  0
    2.6134   -0.2777   -0.8773 N   0  0  0  0  0  0  0  0  0  0  0  0
    4.0087   -0.3375   -1.0060 N   0  0  0  0  0  0  0  0  0  0  0  0
    4.6366    0.9845   -0.8747 C   0  0  0  0  0  0  0  0  0  0  0  0
    5.2451    1.2256    0.5042 C   0  0  0  0  0  0  0  0  0  0  0  0
    6.3144    0.1835    0.8330 C   0  0  0  0  0  0  0  0  0  0  0  0
    6.0614   -1.1539    0.1366 C   0  0  0  0  0  0  0  0  0  0  0  0
    4.5735   -1.3715   -0.1257 C   0  0  0  0  0  0  0  0  0  0  0  0
   -2.8563   -1.7820    5.4311 H   0  0  0  0  0  0  0  0  0  0  0  0
   -4.4142   -1.0686    5.0155 H   0  0  0  0  0  0  0  0  0  0  0  0
   -3.1110   -0.0329    5.6484 H   0  0  0  0  0  0  0  0  0  0  0  0
   -0.8761   -1.4592    3.9513 H   0  0  0  0  0  0  0  0  0  0  0  0
   -0.0677   -1.0029    1.6986 H   0  0  0  0  0  0  0  0  0  0  0  0
   -3.8929    0.7271    0.6944 H   0  0  0  0  0  0  0  0  0  0  0  0
   -4.6804    0.2768    2.9373 H   0  0  0  0  0  0  0  0  0  0  0  0
   -2.3192    2.0905   -0.4621 H   0  0  0  0  0  0  0  0  0  0  0  0
   -1.3066    1.6660   -1.8269 H   0  0  0  0  0  0  0  0  0  0  0  0
   -3.8538    2.8345   -2.3572 H   0  0  0  0  0  0  0  0  0  0  0  0
   -5.7836    2.1815   -3.7462 H   0  0  0  0  0  0  0  0  0  0  0  0
   -6.2768   -0.2148   -4.1533 H   0  0  0  0  0  0  0  0  0  0  0  0
   -4.8235   -1.9628   -3.1618 H   0  0  0  0  0  0  0  0  0  0  0  0
   -2.8973   -1.3381   -1.7692 H   0  0  0  0  0  0  0  0  0  0  0  0
   -0.3744   -1.0389   -2.2786 H   0  0  0  0  0  0  0  0  0  0  0  0
    2.1748    0.1974   -0.0886 H   0  0  0  0  0  0  0  0  0  0  0  0
    5.4298    1.0583   -1.6295 H   0  0  0  0  0  0  0  0  0  0  0  0
    3.9261    1.7861   -1.1138 H   0  0  0  0  0  0  0  0  0  0  0  0
    4.4531    1.1901    1.2635 H   0  0  0  0  0  0  0  0  0  0  0  0
    5.6813    2.2296    0.5571 H   0  0  0  0  0  0  0  0  0  0  0  0
    7.3039    0.5546    0.5401 H   0  0  0  0  0  0  0  0  0  0  0  0
    6.3486    0.0410    1.9197 H   0  0  0  0  0  0  0  0  0  0  0  0
    6.6074   -1.1801   -0.8154 H   0  0  0  0  0  0  0  0  0  0  0  0
    6.4638   -1.9701    0.7472 H   0  0  0  0  0  0  0  0  0  0  0  0
    4.0497   -1.3896    0.8401 H   0  0  0  0  0  0  0  0  0  0  0  0
    4.4246   -2.3535   -0.5894 H   0  0  0  0  0  0  0  0  0  0  0  0
  1  2  1  0
  2  3  2  0
  3  4  1  0
  4  5  2  0
  5  6  1  0
  6  7  2  0
  5  8  1  0
  8  9  1  0
  9 10  1  0
 10 11  2  0
 11 12  1  0
 12 13  2  0
 13 14  1  0
 14 15  2  0
  8 16  1  0
 16 17  2  0
 17 18  1  0
 18 19  2  0
 18 20  1  0
 20 21  1  0
 21 22  1  0
 22 23  1  0
 23 24  1  0
 24 25  1  0
 25 26  1  0
  7  2  1  0
 15 10  1  0
 26 21  1  0
  1 27  1  0
  1 28  1  0
  1 29  1  0
  3 30  1  0
  4 31  1  0
  6 32  1  0
  7 33  1  0
  9 34  1  0
  9 35  1  0
 11 36  1  0
 12 37  1  0
 13 38  1  0
 14 39  1  0
 15 40  1  0
 17 41  1  0
 20 42  1  0
 22 43  1  0
 22 44  1  0
 23 45  1  0
 23 46  1  0
 24 47  1  0
 24 48  1  0
 25 49  1  0
 25 50  1  0
 26 51  1  0
 26 52  1  0
M  END
>  <Unnamed: 0>  (13) 
61

>  <ID>  (13) 
TRAIN_0061

>  <Canonical_Smiles>  (13) 
Cc1ccc(cc1)N(Cc2ccccc2)\N=C\C(=O)NN3CCCCC3

>  <Inhibition>  (13) 
16.5

>  <TDC_conf_true_inhibitor>  (13) 
0

>  <TDC_conf_non_inhibitor>  (13) 
0

>  <split>  (13) 
1

$$$$
13
     RDKit          3D

 28 30  0  0  0  0  0  0  0  0999 V2000
   -4.6486   -0.8455    1.5468 N   0  0  0  0  0  0  0  0  0  0  0  0
   -3.6540   -0.0918    0.9093 C   0  0  0  0  0  0  0  0  0  0  0  0
   -4.0035    0.9510    0.0546 C   0  0  0  0  0  0  0  0  0  0  0  0
   -3.0214    1.6301   -0.6634 C   0  0  0  0  0  0  0  0  0  0  0  0
   -1.6828    1.2399   -0.5676 C   0  0  0  0  0  0  0  0  0  0  0  0
   -1.3058    0.1519    0.2223 C   0  0  0  0  0  0  0  0  0  0  0  0
    0.0176   -0.3068    0.3520 N   0  0  0  0  0  0  0  0  0  0  0  0
    1.2410    0.1563   -0.1539 C   0  0  0  0  0  0  0  0  0  0  0  0
    1.3352    1.2976   -0.8787 N   0  0  0  0  0  0  0  0  0  0  0  0
    2.5417    1.6839   -1.3245 C   0  0  0  0  0  0  0  0  0  0  0  0
    2.5593    3.1348   -2.2324 Cl  0  0  0  0  0  0  0  0  0  0  0  0
    3.7343    1.0922   -1.1584 N   0  0  0  0  0  0  0  0  0  0  0  0
    3.6072   -0.0287   -0.4377 C   0  0  0  0  0  0  0  0  0  0  0  0
    4.6448   -0.8532   -0.0986 N   0  0  0  0  0  0  0  0  0  0  0  0
    4.1731   -1.9077    0.6400 C   0  0  0  0  0  0  0  0  0  0  0  0
    2.8088   -1.7512    0.7730 C   0  0  0  0  0  0  0  0  0  0  0  0
    2.4371   -0.5555    0.0892 C   0  0  0  0  0  0  0  0  0  0  0  0
   -2.3176   -0.5106    0.9448 C   0  0  0  0  0  0  0  0  0  0  0  0
   -5.5021   -0.3242    1.7227 H   0  0  0  0  0  0  0  0  0  0  0  0
   -4.3238   -1.3388    2.3720 H   0  0  0  0  0  0  0  0  0  0  0  0
   -5.0422    1.2486   -0.0567 H   0  0  0  0  0  0  0  0  0  0  0  0
   -3.2954    2.4587   -1.3110 H   0  0  0  0  0  0  0  0  0  0  0  0
   -0.9523    1.7938   -1.1477 H   0  0  0  0  0  0  0  0  0  0  0  0
    0.1060   -1.1617    0.8831 H   0  0  0  0  0  0  0  0  0  0  0  0
    5.6055   -0.6882   -0.3648 H   0  0  0  0  0  0  0  0  0  0  0  0
    4.8454   -2.6739    1.0041 H   0  0  0  0  0  0  0  0  0  0  0  0
    2.1533   -2.4281    1.3052 H   0  0  0  0  0  0  0  0  0  0  0  0
   -2.0608   -1.3730    1.5539 H   0  0  0  0  0  0  0  0  0  0  0  0
  1  2  1  0
  2  3  2  0
  3  4  1  0
  4  5  2  0
  5  6  1  0
  6  7  1  0
  7  8  1  0
  8  9  2  0
  9 10  1  0
 10 11  1  0
 10 12  2  0
 12 13  1  0
 13 14  1  0
 14 15  1  0
 15 16  2  0
 16 17  1  0
  6 18  2  0
 18  2  1  0
 17  8  1  0
 17 13  2  0
  1 19  1  0
  1 20  1  0
  3 21  1  0
  4 22  1  0
  5 23  1  0
  7 24  1  0
 14 25  1  0
 15 26  1  0
 16 27  1  0
 18 28  1  0
M  END
>  <Unnamed: 0>  (14) 
76

>  <ID>  (14) 
TRAIN_0076

>  <Canonical_Smiles>  (14) 
Nc1cccc(Nc2nc(Cl)nc3[nH]ccc23)c1

>  <Inhibition>  (14) 
77.1

>  <TDC_conf_true_inhibitor>  (14) 
1

>  <TDC_conf_non_inhibitor>  (14) 
0

>  <split>  (14) 
1

$$$$
14
     RDKit          3D

 45 47  0  0  0  0  0  0  0  0999 V2000
   -6.1822    0.3680   -0.2640 C   0  0  0  0  0  0  0  0  0  0  0  0
   -4.9722   -0.2645    0.3706 C   0  0  0  0  0  0  0  0  0  0  0  0
   -5.1744   -1.1983    1.3960 C   0  0  0  0  0  0  0  0  0  0  0  0
   -4.0937   -1.8083    2.0191 C   0  0  0  0  0  0  0  0  0  0  0  0
   -2.7948   -1.5019    1.6181 C   0  0  0  0  0  0  0  0  0  0  0  0
   -2.5424   -0.5859    0.5882 C   0  0  0  0  0  0  0  0  0  0  0  0
   -1.2277   -0.2661    0.1859 N   0  0  0  0  0  0  0  0  0  0  0  0
    0.0276   -0.4912    0.7708 C   0  0  0  0  0  0  0  0  0  0  0  0
    0.1295   -0.8962    2.0637 N   0  0  0  0  0  0  0  0  0  0  0  0
    1.3421   -1.0611    2.6140 C   0  0  0  0  0  0  0  0  0  0  0  0
    2.5358   -0.8693    2.0416 N   0  0  0  0  0  0  0  0  0  0  0  0
    2.4148   -0.4704    0.7650 C   0  0  0  0  0  0  0  0  0  0  0  0
    1.2358   -0.2599    0.0644 C   0  0  0  0  0  0  0  0  0  0  0  0
    1.6174    0.1516   -1.2644 C   0  0  0  0  0  0  0  0  0  0  0  0
    0.6936    0.4575   -2.3938 C   0  0  0  0  0  0  0  0  0  0  0  0
    3.0096    0.2035   -1.3026 C   0  0  0  0  0  0  0  0  0  0  0  0
    3.9274    0.5761   -2.4198 C   0  0  0  0  0  0  0  0  0  0  0  0
    3.4720   -0.1917   -0.0643 N   0  0  0  0  0  0  0  0  0  0  0  0
    4.8627   -0.3236    0.3518 C   0  0  0  0  0  0  0  0  0  0  0  0
    5.3209    0.8375    1.2298 C   0  0  0  0  0  0  0  0  0  0  0  0
    5.4465    2.0417    0.4753 O   0  0  0  0  0  0  0  0  0  0  0  0
   -3.6501    0.0711   -0.0184 C   0  0  0  0  0  0  0  0  0  0  0  0
   -3.4128    1.1040   -1.0961 C   0  0  0  0  0  0  0  0  0  0  0  0
   -6.2406    1.4274    0.0049 H   0  0  0  0  0  0  0  0  0  0  0  0
   -6.1433    0.2629   -1.3530 H   0  0  0  0  0  0  0  0  0  0  0  0
   -7.1090   -0.1112    0.0698 H   0  0  0  0  0  0  0  0  0  0  0  0
   -6.1806   -1.4560    1.7190 H   0  0  0  0  0  0  0  0  0  0  0  0
   -4.2568   -2.5294    2.8152 H   0  0  0  0  0  0  0  0  0  0  0  0
   -1.9777   -2.0167    2.1138 H   0  0  0  0  0  0  0  0  0  0  0  0
   -1.1673    0.1250   -0.7381 H   0  0  0  0  0  0  0  0  0  0  0  0
    1.3527   -1.3868    3.6494 H   0  0  0  0  0  0  0  0  0  0  0  0
    1.2262    0.6112   -3.3360 H   0  0  0  0  0  0  0  0  0  0  0  0
    0.1215    1.3661   -2.1808 H   0  0  0  0  0  0  0  0  0  0  0  0
   -0.0040   -0.3711   -2.5527 H   0  0  0  0  0  0  0  0  0  0  0  0
    4.7040    1.2678   -2.0802 H   0  0  0  0  0  0  0  0  0  0  0  0
    4.4083   -0.3183   -2.8286 H   0  0  0  0  0  0  0  0  0  0  0  0
    3.3935    1.0739   -3.2337 H   0  0  0  0  0  0  0  0  0  0  0  0
    5.4831   -0.4012   -0.5461 H   0  0  0  0  0  0  0  0  0  0  0  0
    4.9474   -1.2721    0.8943 H   0  0  0  0  0  0  0  0  0  0  0  0
    6.3105    0.6126    1.6397 H   0  0  0  0  0  0  0  0  0  0  0  0
    4.6450    1.0234    2.0705 H   0  0  0  0  0  0  0  0  0  0  0  0
    4.5425    2.3375    0.2617 H   0  0  0  0  0  0  0  0  0  0  0  0
   -2.6156    1.7948   -0.8009 H   0  0  0  0  0  0  0  0  0  0  0  0
   -3.1366    0.6081   -2.0320 H   0  0  0  0  0  0  0  0  0  0  0  0
   -4.2886    1.7293   -1.2869 H   0  0  0  0  0  0  0  0  0  0  0  0
  1  2  1  0
  2  3  2  0
  3  4  1  0
  4  5  2  0
  5  6  1  0
  6  7  1  0
  7  8  1  0
  8  9  2  0
  9 10  1  0
 10 11  2  0
 11 12  1  0
 12 13  2  0
 13 14  1  0
 14 15  1  0
 14 16  2  0
 16 17  1  0
 16 18  1  0
 18 19  1  0
 19 20  1  0
 20 21  1  0
  6 22  2  0
 22 23  1  0
 22  2  1  0
 13  8  1  0
 18 12  1  0
  1 24  1  0
  1 25  1  0
  1 26  1  0
  3 27  1  0
  4 28  1  0
  5 29  1  0
  7 30  1  0
 10 31  1  0
 15 32  1  0
 15 33  1  0
 15 34  1  0
 17 35  1  0
 17 36  1  0
 17 37  1  0
 19 38  1  0
 19 39  1  0
 20 40  1  0
 20 41  1  0
 21 42  1  0
 23 43  1  0
 23 44  1  0
 23 45  1  0
M  END
>  <Unnamed: 0>  (15) 
1137

>  <ID>  (15) 
TRAIN_1137

>  <Canonical_Smiles>  (15) 
Cc1cccc(Nc2ncnc3c2c(C)c(C)n3CCO)c1C

>  <Inhibition>  (15) 
30.5

>  <TDC_conf_true_inhibitor>  (15) 
0

>  <TDC_conf_non_inhibitor>  (15) 
1

>  <split>  (15) 
1

$$$$
15
     RDKit          3D

 34 36  0  0  0  0  0  0  0  0999 V2000
   -8.4116   -1.0299    0.0948 Cl  0  0  0  0  0  0  0  0  0  0  0  0
   -6.7234   -0.6916    0.2241 C   0  0  0  0  0  0  0  0  0  0  0  0
   -5.9841   -0.6042   -0.9562 C   0  0  0  0  0  0  0  0  0  0  0  0
   -4.6108   -0.3319   -0.9139 C   0  0  0  0  0  0  0  0  0  0  0  0
   -3.9483   -0.1412    0.3099 C   0  0  0  0  0  0  0  0  0  0  0  0
   -4.7105   -0.2336    1.4893 C   0  0  0  0  0  0  0  0  0  0  0  0
   -6.0841   -0.5056    1.4515 C   0  0  0  0  0  0  0  0  0  0  0  0
   -6.9277   -0.5976    2.9569 Cl  0  0  0  0  0  0  0  0  0  0  0  0
   -2.5055    0.1477    0.4175 C   0  0  0  0  0  0  0  0  0  0  0  0
   -1.8643    0.3198    1.5601 N   0  0  0  0  0  0  0  0  0  0  0  0
   -0.5207    0.5771    1.3836 N   0  0  0  0  0  0  0  0  0  0  0  0
   -0.1837    0.5911    0.1147 C   0  0  0  0  0  0  0  0  0  0  0  0
    1.1036    0.8322   -0.2938 N   0  0  0  0  0  0  0  0  0  0  0  0
    1.5791    0.8292   -1.5865 C   0  0  0  0  0  0  0  0  0  0  0  0
    0.9208    0.6346   -2.6050 O   0  0  0  0  0  0  0  0  0  0  0  0
    3.0601    1.1742   -1.6911 C   0  0  0  0  0  0  0  0  0  0  0  0
    3.9438    0.4243   -0.7224 C   0  0  0  0  0  0  0  0  0  0  0  0
    4.6460    1.1090    0.2793 C   0  0  0  0  0  0  0  0  0  0  0  0
    5.4445    0.4089    1.1846 C   0  0  0  0  0  0  0  0  0  0  0  0
    5.5517   -0.9777    1.0951 C   0  0  0  0  0  0  0  0  0  0  0  0
    4.8645   -1.6664    0.0977 C   0  0  0  0  0  0  0  0  0  0  0  0
    4.0655   -0.9699   -0.8093 C   0  0  0  0  0  0  0  0  0  0  0  0
   -1.4736    0.3000   -0.9526 S   0  0  0  0  0  0  0  0  0  0  0  0
   -6.4696   -0.7472   -1.9195 H   0  0  0  0  0  0  0  0  0  0  0  0
   -4.0795   -0.2746   -1.8620 H   0  0  0  0  0  0  0  0  0  0  0  0
   -4.2271   -0.0913    2.4562 H   0  0  0  0  0  0  0  0  0  0  0  0
    1.7505    0.9603    0.4742 H   0  0  0  0  0  0  0  0  0  0  0  0
    3.3996    0.9535   -2.7107 H   0  0  0  0  0  0  0  0  0  0  0  0
    3.1578    2.2576   -1.5520 H   0  0  0  0  0  0  0  0  0  0  0  0
    4.5822    2.1921    0.3630 H   0  0  0  0  0  0  0  0  0  0  0  0
    5.9876    0.9448    1.9592 H   0  0  0  0  0  0  0  0  0  0  0  0
    6.1753   -1.5217    1.8001 H   0  0  0  0  0  0  0  0  0  0  0  0
    4.9530   -2.7477    0.0252 H   0  0  0  0  0  0  0  0  0  0  0  0
    3.5387   -1.5243   -1.5845 H   0  0  0  0  0  0  0  0  0  0  0  0
  1  2  1  0
  2  3  2  0
  3  4  1  0
  4  5  2  0
  5  6  1  0
  6  7  2  0
  7  8  1  0
  5  9  1  0
  9 10  2  0
 10 11  1  0
 11 12  2  0
 12 13  1  0
 13 14  1  0
 14 15  2  0
 14 16  1  0
 16 17  1  0
 17 18  2  0
 18 19  1  0
 19 20  2  0
 20 21  1  0
 21 22  2  0
 12 23  1  0
  7  2  1  0
 23  9  1  0
 22 17  1  0
  3 24  1  0
  4 25  1  0
  6 26  1  0
 13 27  1  0
 16 28  1  0
 16 29  1  0
 18 30  1  0
 19 31  1  0
 20 32  1  0
 21 33  1  0
 22 34  1  0
M  END
>  <Unnamed: 0>  (16) 
87

>  <ID>  (16) 
TRAIN_0087

>  <Canonical_Smiles>  (16) 
Clc1ccc(cc1Cl)c2nnc(NC(=O)Cc3ccccc3)s2

>  <Inhibition>  (16) 
33.8

>  <TDC_conf_true_inhibitor>  (16) 
1

>  <TDC_conf_non_inhibitor>  (16) 
0

>  <split>  (16) 
1

$$$$
16
     RDKit          3D

 35 36  0  0  0  0  0  0  0  0999 V2000
   -1.1895    2.6563    0.2010 C   0  0  0  0  0  0  0  0  0  0  0  0
   -0.3682    1.4458    0.0934 N   0  0  0  0  0  0  0  0  0  0  0  0
   -1.0426    0.4258   -0.7332 C   0  0  0  0  0  0  0  0  0  0  0  0
   -2.2646   -0.1708   -0.0622 C   0  0  0  0  0  0  0  0  0  0  0  0
   -2.1420   -0.8311    1.1725 C   0  0  0  0  0  0  0  0  0  0  0  0
   -3.2606   -1.3918    1.7894 C   0  0  0  0  0  0  0  0  0  0  0  0
   -4.5012   -1.2964    1.1718 C   0  0  0  0  0  0  0  0  0  0  0  0
   -5.5761   -1.8342    1.7633 F   0  0  0  0  0  0  0  0  0  0  0  0
   -4.6450   -0.6517   -0.0512 C   0  0  0  0  0  0  0  0  0  0  0  0
   -3.5273   -0.0895   -0.6705 C   0  0  0  0  0  0  0  0  0  0  0  0
    0.9496    1.7930   -0.4670 C   0  0  0  0  0  0  0  0  0  0  0  0
    1.9775    0.6901   -0.2963 C   0  0  0  0  0  0  0  0  0  0  0  0
    2.2544    0.1709    0.9798 C   0  0  0  0  0  0  0  0  0  0  0  0
    3.2056   -0.8372    1.1493 C   0  0  0  0  0  0  0  0  0  0  0  0
    3.8923   -1.3285    0.0330 C   0  0  0  0  0  0  0  0  0  0  0  0
    3.6337   -0.8168   -1.2453 C   0  0  0  0  0  0  0  0  0  0  0  0
    2.6795    0.1917   -1.4045 C   0  0  0  0  0  0  0  0  0  0  0  0
    4.8936   -2.3883    0.2029 N   0  0  0  0  0  4  0  0  0  0  0  0
    5.4770   -2.7985   -0.8111 O   0  0  0  0  0  0  0  0  0  0  0  0
    5.0989   -2.8110    1.3498 O   0  0  0  0  0  1  0  0  0  0  0  0
   -2.1494    2.4476    0.6848 H   0  0  0  0  0  0  0  0  0  0  0  0
   -0.6917    3.4023    0.8312 H   0  0  0  0  0  0  0  0  0  0  0  0
   -1.3854    3.1104   -0.7772 H   0  0  0  0  0  0  0  0  0  0  0  0
   -0.3726   -0.4198   -0.9342 H   0  0  0  0  0  0  0  0  0  0  0  0
   -1.3091    0.8404   -1.7148 H   0  0  0  0  0  0  0  0  0  0  0  0
   -1.1694   -0.8998    1.6560 H   0  0  0  0  0  0  0  0  0  0  0  0
   -3.1714   -1.8988    2.7444 H   0  0  0  0  0  0  0  0  0  0  0  0
   -5.6250   -0.5916   -0.5134 H   0  0  0  0  0  0  0  0  0  0  0  0
   -3.6479    0.4130   -1.6273 H   0  0  0  0  0  0  0  0  0  0  0  0
    1.3607    2.6697    0.0520 H   0  0  0  0  0  0  0  0  0  0  0  0
    0.8577    2.0760   -1.5241 H   0  0  0  0  0  0  0  0  0  0  0  0
    1.7156    0.5519    1.8467 H   0  0  0  0  0  0  0  0  0  0  0  0
    3.3952   -1.2239    2.1483 H   0  0  0  0  0  0  0  0  0  0  0  0
    4.1623   -1.1890   -2.1205 H   0  0  0  0  0  0  0  0  0  0  0  0
    2.4856    0.5840   -2.4010 H   0  0  0  0  0  0  0  0  0  0  0  0
  1  2  1  0
  2  3  1  0
  3  4  1  0
  4  5  2  0
  5  6  1  0
  6  7  2  0
  7  8  1  0
  7  9  1  0
  9 10  2  0
  2 11  1  0
 11 12  1  0
 12 13  2  0
 13 14  1  0
 14 15  2  0
 15 16  1  0
 16 17  2  0
 15 18  1  0
 18 19  2  0
 18 20  1  0
 10  4  1  0
 17 12  1  0
  1 21  1  0
  1 22  1  0
  1 23  1  0
  3 24  1  0
  3 25  1  0
  5 26  1  0
  6 27  1  0
  9 28  1  0
 10 29  1  0
 11 30  1  0
 11 31  1  0
 13 32  1  0
 14 33  1  0
 16 34  1  0
 17 35  1  0
M  CHG  2  18   1  20  -1
M  END
>  <Unnamed: 0>  (17) 
94

>  <ID>  (17) 
TRAIN_0094

>  <Canonical_Smiles>  (17) 
CN(Cc1ccc(F)cc1)Cc2ccc(cc2)[N+](=O)[O-]

>  <Inhibition>  (17) 
0.0

>  <TDC_conf_true_inhibitor>  (17) 
0

>  <TDC_conf_non_inhibitor>  (17) 
1

>  <split>  (17) 
1

$$$$
17
     RDKit          3D

 28 29  0  0  0  0  0  0  0  0999 V2000
   -0.6332    2.5177    0.1466 C   0  0  0  0  0  0  0  0  0  0  0  0
   -1.4616    1.3073   -0.0820 C   0  0  0  0  0  0  0  0  0  0  0  0
   -2.5937    1.4231   -0.7854 N   0  0  0  0  0  0  0  0  0  0  0  0
   -3.1038    0.1888   -0.7905 N   0  0  0  0  0  0  0  0  0  0  0  0
   -2.3615   -0.7180   -0.0897 C   0  0  0  0  0  0  0  0  0  0  0  0
   -2.8181   -2.1206    0.0578 C   0  0  0  0  0  0  0  0  0  0  0  0
   -1.2390   -0.0351    0.3596 C   0  0  0  0  0  0  0  0  0  0  0  0
   -0.1190   -0.5817    1.1899 C   0  0  0  0  0  0  0  0  0  0  0  0
    1.1879   -0.3607    0.4599 C   0  0  0  0  0  0  0  0  0  0  0  0
    2.0606    0.6355    0.9456 C   0  0  0  0  0  0  0  0  0  0  0  0
    3.2843    0.8980    0.3266 C   0  0  0  0  0  0  0  0  0  0  0  0
    3.6705    0.1607   -0.7860 C   0  0  0  0  0  0  0  0  0  0  0  0
    2.8381   -0.8463   -1.2700 C   0  0  0  0  0  0  0  0  0  0  0  0
    1.6098   -1.1137   -0.6502 C   0  0  0  0  0  0  0  0  0  0  0  0
    0.6030   -2.5589   -1.3612 Br  0  0  0  0  0  0  0  0  0  0  0  0
   -0.2813    2.5579    1.1817 H   0  0  0  0  0  0  0  0  0  0  0  0
   -1.2057    3.4330   -0.0388 H   0  0  0  0  0  0  0  0  0  0  0  0
    0.2307    2.5222   -0.5247 H   0  0  0  0  0  0  0  0  0  0  0  0
   -3.9796    0.0363   -1.2788 H   0  0  0  0  0  0  0  0  0  0  0  0
   -2.7734   -2.6412   -0.9040 H   0  0  0  0  0  0  0  0  0  0  0  0
   -2.2048   -2.6740    0.7743 H   0  0  0  0  0  0  0  0  0  0  0  0
   -3.8527   -2.1522    0.4154 H   0  0  0  0  0  0  0  0  0  0  0  0
   -0.2435   -1.6462    1.4132 H   0  0  0  0  0  0  0  0  0  0  0  0
   -0.1138   -0.0715    2.1612 H   0  0  0  0  0  0  0  0  0  0  0  0
    1.7858    1.2254    1.8186 H   0  0  0  0  0  0  0  0  0  0  0  0
    3.9340    1.6784    0.7151 H   0  0  0  0  0  0  0  0  0  0  0  0
    4.6215    0.3619   -1.2721 H   0  0  0  0  0  0  0  0  0  0  0  0
    3.1588   -1.4264   -2.1322 H   0  0  0  0  0  0  0  0  0  0  0  0
  1  2  1  0
  2  3  2  0
  3  4  1  0
  4  5  1  0
  5  6  1  0
  5  7  2  0
  7  8  1  0
  8  9  1  0
  9 10  2  0
 10 11  1  0
 11 12  2  0
 12 13  1  0
 13 14  2  0
 14 15  1  0
  7  2  1  0
 14  9  1  0
  1 16  1  0
  1 17  1  0
  1 18  1  0
  4 19  1  0
  6 20  1  0
  6 21  1  0
  6 22  1  0
  8 23  1  0
  8 24  1  0
 10 25  1  0
 11 26  1  0
 12 27  1  0
 13 28  1  0
M  END
>  <Unnamed: 0>  (18) 
120

>  <ID>  (18) 
TRAIN_0120

>  <Canonical_Smiles>  (18) 
Cc1n[nH]c(C)c1Cc2ccccc2Br

>  <Inhibition>  (18) 
22.3

>  <TDC_conf_true_inhibitor>  (18) 
0

>  <TDC_conf_non_inhibitor>  (18) 
1

>  <split>  (18) 
1

$$$$
18
     RDKit          3D

 32 34  0  0  0  0  0  0  0  0999 V2000
    6.5975   -1.4971   -0.4034 O   0  0  0  0  0  0  0  0  0  0  0  0
    5.3471   -0.9681   -0.5135 C   0  0  0  0  0  0  0  0  0  0  0  0
    4.9992   -0.3680   -1.7136 C   0  0  0  0  0  0  0  0  0  0  0  0
    3.7249    0.1863   -1.8649 C   0  0  0  0  0  0  0  0  0  0  0  0
    2.7822    0.1485   -0.8220 C   0  0  0  0  0  0  0  0  0  0  0  0
    1.5212    0.7254   -1.0416 N   0  0  0  0  0  0  0  0  0  0  0  0
    0.4431    0.8096   -0.2132 C   0  0  0  0  0  0  0  0  0  0  0  0
    0.2874    0.3897    0.9923 N   0  0  0  0  0  0  0  0  0  0  0  0
   -0.9581    0.6549    1.5155 C   0  0  0  0  0  0  0  0  0  0  0  0
   -1.2730    0.3516    2.6616 O   0  0  0  0  0  0  0  0  0  0  0  0
   -1.9115    1.3600    0.5586 C   0  0  0  0  0  0  0  0  0  0  0  0
   -0.9252    1.6247   -0.9436 S   0  0  0  0  0  0  0  0  0  0  0  0
   -3.1919    0.6108    0.2589 C   0  0  0  0  0  0  0  0  0  0  0  0
   -4.3867    1.3291    0.0806 C   0  0  0  0  0  0  0  0  0  0  0  0
   -5.5795    0.6685   -0.2199 C   0  0  0  0  0  0  0  0  0  0  0  0
   -5.5949   -0.7174   -0.3533 C   0  0  0  0  0  0  0  0  0  0  0  0
   -4.4181   -1.4439   -0.1900 C   0  0  0  0  0  0  0  0  0  0  0  0
   -3.2232   -0.7862    0.1098 C   0  0  0  0  0  0  0  0  0  0  0  0
    3.1649   -0.4640    0.3777 C   0  0  0  0  0  0  0  0  0  0  0  0
    4.4402   -1.0213    0.5359 C   0  0  0  0  0  0  0  0  0  0  0  0
    6.6945   -1.8787    0.4848 H   0  0  0  0  0  0  0  0  0  0  0  0
    5.7145   -0.3300   -2.5301 H   0  0  0  0  0  0  0  0  0  0  0  0
    3.4781    0.6510   -2.8165 H   0  0  0  0  0  0  0  0  0  0  0  0
    1.3871    1.1279   -1.9600 H   0  0  0  0  0  0  0  0  0  0  0  0
   -2.1307    2.3394    0.9998 H   0  0  0  0  0  0  0  0  0  0  0  0
   -4.3988    2.4134    0.1739 H   0  0  0  0  0  0  0  0  0  0  0  0
   -6.4972    1.2363   -0.3507 H   0  0  0  0  0  0  0  0  0  0  0  0
   -6.5238   -1.2318   -0.5855 H   0  0  0  0  0  0  0  0  0  0  0  0
   -4.4295   -2.5260   -0.2951 H   0  0  0  0  0  0  0  0  0  0  0  0
   -2.3207   -1.3834    0.2282 H   0  0  0  0  0  0  0  0  0  0  0  0
    2.4839   -0.5244    1.2219 H   0  0  0  0  0  0  0  0  0  0  0  0
    4.6971   -1.4871    1.4822 H   0  0  0  0  0  0  0  0  0  0  0  0
  1  2  1  0
  2  3  2  0
  3  4  1  0
  4  5  2  0
  5  6  1  0
  6  7  1  0
  7  8  2  0
  8  9  1  0
  9 10  2  0
  9 11  1  0
 11 12  1  0
 11 13  1  0
 13 14  2  0
 14 15  1  0
 15 16  2  0
 16 17  1  0
 17 18  2  0
  5 19  1  0
 19 20  2  0
 20  2  1  0
 12  7  1  0
 18 13  1  0
  1 21  1  0
  3 22  1  0
  4 23  1  0
  6 24  1  0
 11 25  1  0
 14 26  1  0
 15 27  1  0
 16 28  1  0
 17 29  1  0
 18 30  1  0
 19 31  1  0
 20 32  1  0
M  END
>  <Unnamed: 0>  (19) 
137

>  <ID>  (19) 
TRAIN_0137

>  <Canonical_Smiles>  (19) 
Oc1ccc(NC2=NC(=O)C(S2)c3ccccc3)cc1

>  <Inhibition>  (19) 
58.4

>  <TDC_conf_true_inhibitor>  (19) 
1

>  <TDC_conf_non_inhibitor>  (19) 
0

>  <split>  (19) 
1

$$$$
19
     RDKit          3D

 20 22  0  0  0  0  0  0  0  0999 V2000
   -1.6545    2.8979   -1.0188 Cl  0  0  0  0  0  0  0  0  0  0  0  0
   -2.0668    1.3762   -0.3928 C   0  0  0  0  0  0  0  0  0  0  0  0
   -3.3698    1.1161   -0.1983 N   0  0  0  0  0  0  0  0  0  0  0  0
   -3.6725   -0.0937    0.2976 C   0  0  0  0  0  0  0  0  0  0  0  0
   -2.8260   -1.0855    0.6264 N   0  0  0  0  0  0  0  0  0  0  0  0
   -1.5461   -0.7487    0.4034 C   0  0  0  0  0  0  0  0  0  0  0  0
   -0.4805   -1.5645    0.6476 N   0  0  0  0  0  0  0  0  0  0  0  0
    0.6936   -0.9290    0.3150 C   0  0  0  0  0  0  0  0  0  0  0  0
    2.0142   -1.3856    0.4002 C   0  0  0  0  0  0  0  0  0  0  0  0
    3.0296   -0.5183   -0.0120 C   0  0  0  0  0  0  0  0  0  0  0  0
    2.7255    0.7538   -0.4892 C   0  0  0  0  0  0  0  0  0  0  0  0
    4.2665    2.0178   -1.0943 I   0  0  0  0  0  0  0  0  0  0  0  0
    1.4011    1.2006   -0.5703 C   0  0  0  0  0  0  0  0  0  0  0  0
    0.3553    0.3438   -0.1601 C   0  0  0  0  0  0  0  0  0  0  0  0
   -1.0722    0.4524   -0.1012 C   0  0  0  0  0  0  0  0  0  0  0  0
   -4.7284   -0.2964    0.4521 H   0  0  0  0  0  0  0  0  0  0  0  0
   -0.5610   -2.4989    1.0197 H   0  0  0  0  0  0  0  0  0  0  0  0
    2.2510   -2.3779    0.7725 H   0  0  0  0  0  0  0  0  0  0  0  0
    4.0621   -0.8559    0.0471 H   0  0  0  0  0  0  0  0  0  0  0  0
    1.1789    2.1956   -0.9447 H   0  0  0  0  0  0  0  0  0  0  0  0
  1  2  1  0
  2  3  2  0
  3  4  1  0
  4  5  2  0
  5  6  1  0
  6  7  1  0
  7  8  1  0
  8  9  2  0
  9 10  1  0
 10 11  2  0
 11 12  1  0
 11 13  1  0
 13 14  2  0
 14 15  1  0
 15  2  1  0
 15  6  2  0
 14  8  1  0
  4 16  1  0
  7 17  1  0
  9 18  1  0
 10 19  1  0
 13 20  1  0
M  END
>  <Unnamed: 0>  (20) 
142

>  <ID>  (20) 
TRAIN_0142

>  <Canonical_Smiles>  (20) 
Clc1ncnc2[nH]c3ccc(I)cc3c12

>  <Inhibition>  (20) 
46.8

>  <TDC_conf_true_inhibitor>  (20) 
1

>  <TDC_conf_non_inhibitor>  (20) 
0

>  <split>  (20) 
1

$$$$
20
     RDKit          3D

 36 38  0  0  0  0  0  0  0  0999 V2000
    6.7695    0.6312   -1.9126 C   0  0  0  0  0  0  0  0  0  0  0  0
    6.1771   -1.0726   -1.7746 S   0  0  0  0  0  0  0  0  0  0  0  0
    4.4996   -0.7764   -1.2500 C   0  0  0  0  0  0  0  0  0  0  0  0
    4.2004    0.4327   -0.7254 N   0  0  0  0  0  0  0  0  0  0  0  0
    2.9301    0.6681   -0.3196 C   0  0  0  0  0  0  0  0  0  0  0  0
    1.9709   -0.3277   -0.4502 C   0  0  0  0  0  0  0  0  0  0  0  0
    0.5816   -0.4782   -0.1661 C   0  0  0  0  0  0  0  0  0  0  0  0
   -0.4125    0.3671    0.3809 C   0  0  0  0  0  0  0  0  0  0  0  0
   -1.7393   -0.0758    0.5344 C   0  0  0  0  0  0  0  0  0  0  0  0
   -2.0310   -1.3959    0.1476 C   0  0  0  0  0  0  0  0  0  0  0  0
   -1.0748   -2.2617   -0.4019 C   0  0  0  0  0  0  0  0  0  0  0  0
    0.2225   -1.7716   -0.5480 C   0  0  0  0  0  0  0  0  0  0  0  0
    1.3531   -2.3796   -1.0448 N   0  0  0  0  0  0  0  0  0  0  0  0
    2.4116   -1.5189   -0.9958 C   0  0  0  0  0  0  0  0  0  0  0  0
    3.6517   -1.8088   -1.4135 N   0  0  0  0  0  0  0  0  0  0  0  0
   -2.7563    0.7226    1.0891 N   0  0  0  0  0  0  0  0  0  0  0  0
   -2.3614    1.9242    1.8267 C   0  0  0  0  0  0  0  0  0  0  0  0
   -3.9538    0.8907    0.2271 C   0  0  0  0  0  0  0  0  0  0  0  0
   -5.2239    0.7160    1.0686 C   0  0  0  0  0  0  0  0  0  0  0  0
   -5.1558   -0.5043    1.8017 O   0  0  0  0  0  0  0  0  0  0  0  0
    7.7861    0.6215   -2.3134 H   0  0  0  0  0  0  0  0  0  0  0  0
    6.1381    1.2057   -2.5959 H   0  0  0  0  0  0  0  0  0  0  0  0
    6.7915    1.1172   -0.9331 H   0  0  0  0  0  0  0  0  0  0  0  0
    2.7221    1.6493    0.0903 H   0  0  0  0  0  0  0  0  0  0  0  0
   -0.1235    1.3726    0.6644 H   0  0  0  0  0  0  0  0  0  0  0  0
   -3.0380   -1.7874    0.2911 H   0  0  0  0  0  0  0  0  0  0  0  0
   -1.3427   -3.2744   -0.6872 H   0  0  0  0  0  0  0  0  0  0  0  0
    1.4097   -3.3203   -1.4029 H   0  0  0  0  0  0  0  0  0  0  0  0
   -1.9992    2.7095    1.1554 H   0  0  0  0  0  0  0  0  0  0  0  0
   -3.2145    2.3267    2.3813 H   0  0  0  0  0  0  0  0  0  0  0  0
   -1.5897    1.6960    2.5700 H   0  0  0  0  0  0  0  0  0  0  0  0
   -3.9785    0.1529   -0.5832 H   0  0  0  0  0  0  0  0  0  0  0  0
   -3.9441    1.8767   -0.2510 H   0  0  0  0  0  0  0  0  0  0  0  0
   -6.1096    0.6907    0.4309 H   0  0  0  0  0  0  0  0  0  0  0  0
   -5.3428    1.5334    1.7870 H   0  0  0  0  0  0  0  0  0  0  0  0
   -4.2244   -0.5516    2.0987 H   0  0  0  0  0  0  0  0  0  0  0  0
  1  2  1  0
  2  3  1  0
  3  4  2  0
  4  5  1  0
  5  6  2  0
  6  7  1  0
  7  8  2  0
  8  9  1  0
  9 10  2  0
 10 11  1  0
 11 12  2  0
 12 13  1  0
 13 14  1  0
 14 15  2  0
  9 16  1  0
 16 17  1  0
 16 18  1  0
 18 19  1  0
 19 20  1  0
 15  3  1  0
 14  6  1  0
 12  7  1  0
  1 21  1  0
  1 22  1  0
  1 23  1  0
  5 24  1  0
  8 25  1  0
 10 26  1  0
 11 27  1  0
 13 28  1  0
 17 29  1  0
 17 30  1  0
 17 31  1  0
 18 32  1  0
 18 33  1  0
 19 34  1  0
 19 35  1  0
 20 36  1  0
M  END
>  <Unnamed: 0>  (21) 
162

>  <ID>  (21) 
TRAIN_0162

>  <Canonical_Smiles>  (21) 
CSc1ncc2c3cc(ccc3[nH]c2n1)N(C)CCO

>  <Inhibition>  (21) 
48.1

>  <TDC_conf_true_inhibitor>  (21) 
0

>  <TDC_conf_non_inhibitor>  (21) 
1

>  <split>  (21) 
1

$$$$
21
     RDKit          3D

 30 32  0  0  0  0  0  0  0  0999 V2000
   -4.3991   -1.8606    2.0169 C   0  0  0  0  0  0  0  0  0  0  0  0
   -3.0423   -1.5726    1.7003 O   0  0  0  0  0  0  0  0  0  0  0  0
   -2.8188   -0.6540    0.7170 C   0  0  0  0  0  0  0  0  0  0  0  0
   -3.7980    0.0354   -0.0136 C   0  0  0  0  0  0  0  0  0  0  0  0
   -3.4512    0.9590   -1.0031 C   0  0  0  0  0  0  0  0  0  0  0  0
   -2.1117    1.2173   -1.2877 C   0  0  0  0  0  0  0  0  0  0  0  0
   -1.8011    2.1071   -2.2408 F   0  0  0  0  0  0  0  0  0  0  0  0
   -1.0999    0.5492   -0.5801 C   0  0  0  0  0  0  0  0  0  0  0  0
    0.3245    0.5727   -0.6142 C   0  0  0  0  0  0  0  0  0  0  0  0
    1.3044    1.2487   -1.3431 C   0  0  0  0  0  0  0  0  0  0  0  0
    2.6128    1.0083   -1.0944 N   0  0  0  0  0  0  0  0  0  0  0  0
    2.8903    0.1006   -0.1259 C   0  0  0  0  0  0  0  0  0  0  0  0
    2.0446   -0.6173    0.6469 N   0  0  0  0  0  0  0  0  0  0  0  0
    0.7706   -0.3258    0.3433 C   0  0  0  0  0  0  0  0  0  0  0  0
   -0.3216   -0.8820    0.9448 N   0  0  0  0  0  0  0  0  0  0  0  0
   -1.4808   -0.3683    0.4030 C   0  0  0  0  0  0  0  0  0  0  0  0
    4.6259   -0.1996    0.1841 S   0  0  0  0  0  6  0  0  0  0  0  0
    4.9323   -1.5660   -0.2102 O   0  0  0  0  0  0  0  0  0  0  0  0
    4.9433    0.2833    1.5192 O   0  0  0  0  0  0  0  0  0  0  0  0
    5.4670    0.8634   -0.9579 C   0  0  0  0  0  0  0  0  0  0  0  0
   -4.9145   -0.9697    2.3907 H   0  0  0  0  0  0  0  0  0  0  0  0
   -4.4042   -2.6082    2.8159 H   0  0  0  0  0  0  0  0  0  0  0  0
   -4.9226   -2.2893    1.1559 H   0  0  0  0  0  0  0  0  0  0  0  0
   -4.8559   -0.1298    0.1697 H   0  0  0  0  0  0  0  0  0  0  0  0
   -4.2222    1.4841   -1.5594 H   0  0  0  0  0  0  0  0  0  0  0  0
    1.0727    1.9733   -2.1163 H   0  0  0  0  0  0  0  0  0  0  0  0
   -0.2850   -1.5716    1.6816 H   0  0  0  0  0  0  0  0  0  0  0  0
    5.2033    1.9017   -0.7479 H   0  0  0  0  0  0  0  0  0  0  0  0
    6.5416    0.7248   -0.8165 H   0  0  0  0  0  0  0  0  0  0  0  0
    5.1955    0.5861   -1.9783 H   0  0  0  0  0  0  0  0  0  0  0  0
  1  2  1  0
  2  3  1  0
  3  4  2  0
  4  5  1  0
  5  6  2  0
  6  7  1  0
  6  8  1  0
  8  9  1  0
  9 10  2  0
 10 11  1  0
 11 12  2  0
 12 13  1  0
 13 14  2  0
 14 15  1  0
 15 16  1  0
 12 17  1  0
 17 18  2  0
 17 19  2  0
 17 20  1  0
 16  3  1  0
 16  8  2  0
 14  9  1  0
  1 21  1  0
  1 22  1  0
  1 23  1  0
  4 24  1  0
  5 25  1  0
 10 26  1  0
 15 27  1  0
 20 28  1  0
 20 29  1  0
 20 30  1  0
M  END
>  <Unnamed: 0>  (22) 
421

>  <ID>  (22) 
TRAIN_0421

>  <Canonical_Smiles>  (22) 
COc1ccc(F)c2c3cnc(nc3[nH]c12)S(=O)(=O)C

>  <Inhibition>  (22) 
41.3

>  <TDC_conf_true_inhibitor>  (22) 
0

>  <TDC_conf_non_inhibitor>  (22) 
1

>  <split>  (22) 
1

$$$$
22
     RDKit          3D

 38 41  0  0  0  0  0  0  0  0999 V2000
    7.2667   -0.1925   -0.7243 C   0  0  0  0  0  0  0  0  0  0  0  0
    6.2590   -0.9627   -0.0814 O   0  0  0  0  0  0  0  0  0  0  0  0
    4.9650   -0.5467   -0.2404 C   0  0  0  0  0  0  0  0  0  0  0  0
    4.5456    0.5604   -0.9836 C   0  0  0  0  0  0  0  0  0  0  0  0
    3.1859    0.8789   -1.0748 C   0  0  0  0  0  0  0  0  0  0  0  0
    2.2433    0.0907   -0.4170 C   0  0  0  0  0  0  0  0  0  0  0  0
    2.6534   -1.0285    0.3455 C   0  0  0  0  0  0  0  0  0  0  0  0
    1.6159   -1.9464    0.9927 C   0  0  0  0  0  0  0  0  0  0  0  0
    0.2569   -1.2815    1.3509 C   0  0  0  0  0  0  0  0  0  0  0  0
   -0.1222   -0.2612    0.3427 C   0  0  0  0  0  0  0  0  0  0  0  0
    0.8249    0.3512   -0.4306 C   0  0  0  0  0  0  0  0  0  0  0  0
    0.2593    1.2614   -1.2478 O   0  0  0  0  0  0  0  0  0  0  0  0
   -1.1154    1.2632   -1.0216 N   0  0  0  0  0  0  0  0  0  0  0  0
   -1.3387    0.3442   -0.0532 C   0  0  0  0  0  0  0  0  0  0  0  0
   -2.6910    0.0836    0.4625 C   0  0  0  0  0  0  0  0  0  0  0  0
   -2.8760   -0.7435    1.3478 O   0  0  0  0  0  0  0  0  0  0  0  0
   -3.6393    0.8541   -0.1560 N   0  0  0  0  0  0  0  0  0  0  0  0
   -4.9961    0.8531    0.0931 C   0  0  0  0  0  0  0  0  0  0  0  0
   -5.6961    1.7149   -0.6627 N   0  0  0  0  0  0  0  0  0  0  0  0
   -7.0271    1.7544   -0.4599 C   0  0  0  0  0  0  0  0  0  0  0  0
   -7.6773    0.9717    0.4613 C   0  0  0  0  0  0  0  0  0  0  0  0
   -6.8715    0.1257    1.1812 C   0  0  0  0  0  0  0  0  0  0  0  0
   -5.5388    0.0508    1.0144 N   0  0  0  0  0  0  0  0  0  0  0  0
    4.0165   -1.3399    0.4152 C   0  0  0  0  0  0  0  0  0  0  0  0
    7.1395   -0.2050   -1.8118 H   0  0  0  0  0  0  0  0  0  0  0  0
    7.2863    0.8325   -0.3393 H   0  0  0  0  0  0  0  0  0  0  0  0
    8.2338   -0.6515   -0.4974 H   0  0  0  0  0  0  0  0  0  0  0  0
    5.2512    1.1972   -1.5069 H   0  0  0  0  0  0  0  0  0  0  0  0
    2.8757    1.7441   -1.6555 H   0  0  0  0  0  0  0  0  0  0  0  0
    2.0315   -2.3990    1.9010 H   0  0  0  0  0  0  0  0  0  0  0  0
    1.4283   -2.7620    0.2813 H   0  0  0  0  0  0  0  0  0  0  0  0
    0.3499   -0.7849    2.3250 H   0  0  0  0  0  0  0  0  0  0  0  0
   -0.5112   -2.0555    1.4496 H   0  0  0  0  0  0  0  0  0  0  0  0
   -3.3417    1.5006   -0.8729 H   0  0  0  0  0  0  0  0  0  0  0  0
   -7.5706    2.4589   -1.0828 H   0  0  0  0  0  0  0  0  0  0  0  0
   -8.7466    1.0175    0.6097 H   0  0  0  0  0  0  0  0  0  0  0  0
   -7.2802   -0.5386    1.9370 H   0  0  0  0  0  0  0  0  0  0  0  0
    4.3513   -2.2096    0.9764 H   0  0  0  0  0  0  0  0  0  0  0  0
  1  2  1  0
  2  3  1  0
  3  4  2  0
  4  5  1  0
  5  6  2  0
  6  7  1  0
  7  8  1  0
  8  9  1  0
  9 10  1  0
 10 11  2  0
 11 12  1  0
 12 13  1  0
 13 14  2  0
 14 15  1  0
 15 16  2  0
 15 17  1  0
 17 18  1  0
 18 19  2  0
 19 20  1  0
 20 21  2  0
 21 22  1  0
 22 23  2  0
  7 24  2  0
 24  3  1  0
 11  6  1  0
 14 10  1  0
 23 18  1  0
  1 25  1  0
  1 26  1  0
  1 27  1  0
  4 28  1  0
  5 29  1  0
  8 30  1  0
  8 31  1  0
  9 32  1  0
  9 33  1  0
 17 34  1  0
 20 35  1  0
 21 36  1  0
 22 37  1  0
 24 38  1  0
M  END
>  <Unnamed: 0>  (23) 
147

>  <ID>  (23) 
TRAIN_0147

>  <Canonical_Smiles>  (23) 
COc1ccc2c(CCc3c2onc3C(=O)Nc4ncccn4)c1

>  <Inhibition>  (23) 
22.9

>  <TDC_conf_true_inhibitor>  (23) 
0

>  <TDC_conf_non_inhibitor>  (23) 
1

>  <split>  (23) 
1

$$$$
23
     RDKit          3D

 59 65  0  0  0  0  0  0  0  0999 V2000
    4.3965    4.6646    0.7336 C   0  0  0  0  0  0  0  0  0  0  0  0
    4.4960    3.2731    1.0055 O   0  0  0  0  0  0  0  0  0  0  0  0
    3.4985    2.4611    0.5339 C   0  0  0  0  0  0  0  0  0  0  0  0
    2.4785    2.8744   -0.3123 C   0  0  0  0  0  0  0  0  0  0  0  0
    1.4849    1.9739   -0.7124 C   0  0  0  0  0  0  0  0  0  0  0  0
    1.4711    0.6309   -0.2843 C   0  0  0  0  0  0  0  0  0  0  0  0
    0.3625   -0.3089   -0.6510 C   0  0  0  0  0  0  0  0  0  0  0  0
    0.3944   -1.5811   -0.1746 C   0  0  0  0  0  0  0  0  0  0  0  0
    1.5186   -2.0392    0.5224 N   0  0  0  0  0  0  0  0  0  0  0  0
    1.6482   -3.4748    0.8114 C   0  0  0  0  0  0  0  0  0  0  0  0
    1.1418   -4.3279   -0.3485 C   0  0  0  0  0  0  0  0  0  0  0  0
   -0.3021   -3.9701   -0.5686 C   0  0  0  0  0  0  0  0  0  0  0  0
   -1.2416   -4.9772   -0.8470 C   0  0  0  0  0  0  0  0  0  0  0  0
   -2.5666   -4.6175   -0.8877 C   0  0  0  0  0  0  0  0  0  0  0  0
   -3.6145   -5.4521   -1.1137 O   0  0  0  0  0  0  0  0  0  0  0  0
   -4.7216   -4.5332   -1.0032 C   0  0  0  0  0  0  0  0  0  0  0  0
   -4.3158   -3.1851   -0.6868 O   0  0  0  0  0  0  0  0  0  0  0  0
   -2.9633   -3.3269   -0.6487 C   0  0  0  0  0  0  0  0  0  0  0  0
   -2.0581   -2.3148   -0.3920 C   0  0  0  0  0  0  0  0  0  0  0  0
   -0.6847   -2.6077   -0.4131 C   0  0  0  0  0  0  0  0  0  0  0  0
    2.5735   -1.2239    0.9397 C   0  0  0  0  0  0  0  0  0  0  0  0
    3.5203   -1.6744    1.5799 O   0  0  0  0  0  0  0  0  0  0  0  0
    2.5252    0.2064    0.5403 C   0  0  0  0  0  0  0  0  0  0  0  0
    3.5326    1.1162    0.9401 C   0  0  0  0  0  0  0  0  0  0  0  0
    4.5186    0.7344    1.8212 O   0  0  0  0  0  0  0  0  0  0  0  0
    5.7178    0.4015    1.1207 C   0  0  0  0  0  0  0  0  0  0  0  0
   -0.6995    0.2298   -1.6063 C   0  0  0  0  0  0  0  0  0  0  0  0
   -1.6786    1.2268   -1.0539 C   0  0  0  0  0  0  0  0  0  0  0  0
   -2.4007    2.0714   -1.7633 N   0  0  0  0  0  0  0  0  0  0  0  0
   -3.1335    2.7931   -0.8532 C   0  0  0  0  0  0  0  0  0  0  0  0
   -4.0656    3.8192   -1.0618 C   0  0  0  0  0  0  0  0  0  0  0  0
   -4.6800    4.4047    0.0527 C   0  0  0  0  0  0  0  0  0  0  0  0
   -4.3713    3.9774    1.3468 C   0  0  0  0  0  0  0  0  0  0  0  0
   -3.4430    2.9543    1.5739 C   0  0  0  0  0  0  0  0  0  0  0  0
   -2.8480    2.3884    0.4448 C   0  0  0  0  0  0  0  0  0  0  0  0
   -1.9197    1.3924    0.2910 N   0  0  0  0  0  0  0  0  0  0  0  0
    3.4632    5.0811    1.1270 H   0  0  0  0  0  0  0  0  0  0  0  0
    5.2252    5.1648    1.2439 H   0  0  0  0  0  0  0  0  0  0  0  0
    4.4982    4.8627   -0.3383 H   0  0  0  0  0  0  0  0  0  0  0  0
    2.4120    3.8948   -0.6770 H   0  0  0  0  0  0  0  0  0  0  0  0
    0.7147    2.3804   -1.3651 H   0  0  0  0  0  0  0  0  0  0  0  0
    2.6929   -3.7421    1.0039 H   0  0  0  0  0  0  0  0  0  0  0  0
    1.0876   -3.6735    1.7344 H   0  0  0  0  0  0  0  0  0  0  0  0
    1.2497   -5.3881   -0.0941 H   0  0  0  0  0  0  0  0  0  0  0  0
    1.7103   -4.1334   -1.2654 H   0  0  0  0  0  0  0  0  0  0  0  0
   -0.9473   -6.0118   -0.9868 H   0  0  0  0  0  0  0  0  0  0  0  0
   -5.3957   -4.8899   -0.2160 H   0  0  0  0  0  0  0  0  0  0  0  0
   -5.2658   -4.5223   -1.9547 H   0  0  0  0  0  0  0  0  0  0  0  0
   -2.4445   -1.3284   -0.1764 H   0  0  0  0  0  0  0  0  0  0  0  0
    5.5287   -0.2753    0.2797 H   0  0  0  0  0  0  0  0  0  0  0  0
    6.2274    1.3037    0.7679 H   0  0  0  0  0  0  0  0  0  0  0  0
    6.3838   -0.1089    1.8228 H   0  0  0  0  0  0  0  0  0  0  0  0
   -1.2689   -0.5773   -2.0777 H   0  0  0  0  0  0  0  0  0  0  0  0
   -0.1926    0.6874   -2.4678 H   0  0  0  0  0  0  0  0  0  0  0  0
   -4.2996    4.1452   -2.0689 H   0  0  0  0  0  0  0  0  0  0  0  0
   -5.4058    5.2011   -0.0943 H   0  0  0  0  0  0  0  0  0  0  0  0
   -4.8628    4.4489    2.1958 H   0  0  0  0  0  0  0  0  0  0  0  0
   -3.2045    2.6231    2.5786 H   0  0  0  0  0  0  0  0  0  0  0  0
   -1.4768    0.8786    1.0397 H   0  0  0  0  0  0  0  0  0  0  0  0
  1  2  1  0
  2  3  1  0
  3  4  2  0
  4  5  1  0
  5  6  2  0
  6  7  1  0
  7  8  2  0
  8  9  1  0
  9 10  1  0
 10 11  1  0
 11 12  1  0
 12 13  2  0
 13 14  1  0
 14 15  1  0
 15 16  1  0
 16 17  1  0
 17 18  1  0
 18 19  1  0
 19 20  2  0
  9 21  1  0
 21 22  2  0
 21 23  1  0
 23 24  2  0
 24 25  1  0
 25 26  1  0
  7 27  1  0
 27 28  1  0
 28 29  2  0
 29 30  1  0
 30 31  2  0
 31 32  1  0
 32 33  2  0
 33 34  1  0
 34 35  2  0
 35 36  1  0
 24  3  1  0
 23  6  1  0
 20  8  1  0
 20 12  1  0
 18 14  2  0
 36 28  1  0
 35 30  1  0
  1 37  1  0
  1 38  1  0
  1 39  1  0
  4 40  1  0
  5 41  1  0
 10 42  1  0
 10 43  1  0
 11 44  1  0
 11 45  1  0
 13 46  1  0
 16 47  1  0
 16 48  1  0
 19 49  1  0
 26 50  1  0
 26 51  1  0
 26 52  1  0
 27 53  1  0
 27 54  1  0
 31 55  1  0
 32 56  1  0
 33 57  1  0
 34 58  1  0
 36 59  1  0
M  END
>  <Unnamed: 0>  (24) 
148

>  <ID>  (24) 
TRAIN_0148

>  <Canonical_Smiles>  (24) 
COc1ccc2C(=C3N(CCc4cc5OCOc5cc34)C(=O)c2c1OC)Cc6nc7ccccc7[nH]6

>  <Inhibition>  (24) 
70.4

>  <TDC_conf_true_inhibitor>  (24) 
1

>  <TDC_conf_non_inhibitor>  (24) 
0

>  <split>  (24) 
1

$$$$
24
     RDKit          3D

 42 43  0  0  0  0  0  0  0  0999 V2000
   -0.3194   -2.9227   -0.8348 C   0  0  0  0  0  0  0  0  0  0  0  0
   -0.0979   -1.5011   -1.3438 C   0  0  0  0  0  0  0  0  0  0  0  0
   -1.4381   -0.7919   -1.4926 C   0  0  0  0  0  0  0  0  0  0  0  0
   -1.9855   -0.7772   -2.5947 O   0  0  0  0  0  0  0  0  0  0  0  0
   -1.9656   -0.2866   -0.3221 N   0  0  0  0  0  0  0  0  0  0  0  0
   -3.2236    0.3161   -0.1258 C   0  0  0  0  0  0  0  0  0  0  0  0
   -4.2278    0.3628   -1.0922 C   0  0  0  0  0  0  0  0  0  0  0  0
   -5.4554    0.9747   -0.8114 C   0  0  0  0  0  0  0  0  0  0  0  0
   -5.6948    1.5561    0.4377 C   0  0  0  0  0  0  0  0  0  0  0  0
   -7.0225    2.1815    0.7445 C   0  0  0  0  0  0  0  0  0  0  0  0
   -4.6958    1.4927    1.4128 C   0  0  0  0  0  0  0  0  0  0  0  0
   -3.4703    0.8811    1.1310 C   0  0  0  0  0  0  0  0  0  0  0  0
    0.9067   -0.8016   -0.4411 C   0  0  0  0  0  0  0  0  0  0  0  0
    0.5378   -0.1888    0.5585 O   0  0  0  0  0  0  0  0  0  0  0  0
    2.2188   -1.0019   -0.8396 N   0  0  0  0  0  0  0  0  0  0  0  0
    3.3911   -0.5210   -0.2186 C   0  0  0  0  0  0  0  0  0  0  0  0
    3.4026    0.2683    0.9310 C   0  0  0  0  0  0  0  0  0  0  0  0
    4.6139    0.7031    1.4828 C   0  0  0  0  0  0  0  0  0  0  0  0
    5.8336    0.3474    0.8997 C   0  0  0  0  0  0  0  0  0  0  0  0
    7.1263    0.8443    1.4749 C   0  0  0  0  0  0  0  0  0  0  0  0
    5.8232   -0.4300   -0.2609 C   0  0  0  0  0  0  0  0  0  0  0  0
    4.6128   -0.8639   -0.8113 C   0  0  0  0  0  0  0  0  0  0  0  0
   -0.7166   -2.9230    0.1867 H   0  0  0  0  0  0  0  0  0  0  0  0
   -1.0338   -3.4591   -1.4685 H   0  0  0  0  0  0  0  0  0  0  0  0
    0.6185   -3.4883   -0.8242 H   0  0  0  0  0  0  0  0  0  0  0  0
    0.3303   -1.5476   -2.3544 H   0  0  0  0  0  0  0  0  0  0  0  0
   -1.3185   -0.2268    0.4655 H   0  0  0  0  0  0  0  0  0  0  0  0
   -4.0929   -0.0746   -2.0761 H   0  0  0  0  0  0  0  0  0  0  0  0
   -6.2228    0.9917   -1.5823 H   0  0  0  0  0  0  0  0  0  0  0  0
   -7.7063    1.4289    1.1488 H   0  0  0  0  0  0  0  0  0  0  0  0
   -6.9140    2.9901    1.4750 H   0  0  0  0  0  0  0  0  0  0  0  0
   -7.4671    2.6163   -0.1569 H   0  0  0  0  0  0  0  0  0  0  0  0
   -4.8618    1.9202    2.3989 H   0  0  0  0  0  0  0  0  0  0  0  0
   -2.7109    0.8552    1.9088 H   0  0  0  0  0  0  0  0  0  0  0  0
    2.3679   -1.5540   -1.6757 H   0  0  0  0  0  0  0  0  0  0  0  0
    2.4872    0.5725    1.4274 H   0  0  0  0  0  0  0  0  0  0  0  0
    4.5923    1.3247    2.3757 H   0  0  0  0  0  0  0  0  0  0  0  0
    7.0515    0.9600    2.5613 H   0  0  0  0  0  0  0  0  0  0  0  0
    7.3854    1.8113    1.0328 H   0  0  0  0  0  0  0  0  0  0  0  0
    7.9386    0.1365    1.2793 H   0  0  0  0  0  0  0  0  0  0  0  0
    6.7574   -0.7044   -0.7459 H   0  0  0  0  0  0  0  0  0  0  0  0
    4.6456   -1.4710   -1.7121 H   0  0  0  0  0  0  0  0  0  0  0  0
  1  2  1  0
  2  3  1  0
  3  4  2  0
  3  5  1  0
  5  6  1  0
  6  7  2  0
  7  8  1  0
  8  9  2  0
  9 10  1  0
  9 11  1  0
 11 12  2  0
  2 13  1  0
 13 14  2  0
 13 15  1  0
 15 16  1  0
 16 17  2  0
 17 18  1  0
 18 19  2  0
 19 20  1  0
 19 21  1  0
 21 22  2  0
 12  6  1  0
 22 16  1  0
  1 23  1  0
  1 24  1  0
  1 25  1  0
  2 26  1  0
  5 27  1  0
  7 28  1  0
  8 29  1  0
 10 30  1  0
 10 31  1  0
 10 32  1  0
 11 33  1  0
 12 34  1  0
 15 35  1  0
 17 36  1  0
 18 37  1  0
 20 38  1  0
 20 39  1  0
 20 40  1  0
 21 41  1  0
 22 42  1  0
M  END
>  <Unnamed: 0>  (25) 
153

>  <ID>  (25) 
TRAIN_0153

>  <Canonical_Smiles>  (25) 
CC(C(=O)Nc1ccc(C)cc1)C(=O)Nc2ccc(C)cc2

>  <Inhibition>  (25) 
23.4

>  <TDC_conf_true_inhibitor>  (25) 
1

>  <TDC_conf_non_inhibitor>  (25) 
0

>  <split>  (25) 
1

$$$$
25
     RDKit          3D

 42 44  0  0  0  0  0  0  0  0999 V2000
    0.7814   -4.0638   -2.6211 O   0  0  0  0  0  0  0  0  0  0  0  0
    0.0136   -3.1632   -1.9743 C   0  0  0  0  0  0  0  0  0  0  0  0
   -1.1666   -3.3998   -1.7602 O   0  0  0  0  0  0  0  0  0  0  0  0
    0.7889   -1.9320   -1.5232 C   0  0  0  0  0  0  0  0  0  0  0  0
    1.3524   -2.2123   -0.1199 C   0  0  0  0  0  0  0  0  0  0  0  0
    2.0049   -1.0233    0.5512 C   0  0  0  0  0  0  0  0  0  0  0  0
    3.1288   -0.4048   -0.0169 C   0  0  0  0  0  0  0  0  0  0  0  0
    3.7091    0.7059    0.5976 C   0  0  0  0  0  0  0  0  0  0  0  0
    3.1723    1.1939    1.7819 C   0  0  0  0  0  0  0  0  0  0  0  0
    3.7298    2.2600    2.3708 F   0  0  0  0  0  0  0  0  0  0  0  0
    2.0657    0.5912    2.3663 C   0  0  0  0  0  0  0  0  0  0  0  0
    1.4835   -0.5190    1.7538 C   0  0  0  0  0  0  0  0  0  0  0  0
   -0.1214   -0.7907   -1.5244 N   0  0  0  0  0  0  0  0  0  0  0  0
    0.2175    0.4331   -2.0255 C   0  0  0  0  0  0  0  0  0  0  0  0
    1.2456    0.5800   -2.6835 O   0  0  0  0  0  0  0  0  0  0  0  0
   -0.6912    1.5398   -1.7780 C   0  0  0  0  0  0  0  0  0  0  0  0
   -0.7207    2.6916   -2.5683 C   0  0  0  0  0  0  0  0  0  0  0  0
   -1.6328    3.5904   -2.0060 C   0  0  0  0  0  0  0  0  0  0  0  0
   -2.0543    5.2645   -2.7241 Br  0  0  0  0  0  0  0  0  0  0  0  0
   -2.1423    3.0094   -0.8835 C   0  0  0  0  0  0  0  0  0  0  0  0
   -3.1106    3.5424   -0.1203 F   0  0  0  0  0  0  0  0  0  0  0  0
   -1.5562    1.7724   -0.6993 N   0  0  0  0  0  0  0  0  0  0  0  0
   -1.9047    0.8938    0.3682 C   0  0  0  0  0  0  0  0  0  0  0  0
   -2.2031   -0.3926    0.0155 N   0  0  0  0  0  0  0  0  0  0  0  0
   -2.6641   -1.2211    0.9812 C   0  0  0  0  0  0  0  0  0  0  0  0
   -2.8154   -0.8432    2.3013 C   0  0  0  0  0  0  0  0  0  0  0  0
   -2.4657    0.4564    2.6573 C   0  0  0  0  0  0  0  0  0  0  0  0
   -2.0013    1.3490    1.6868 C   0  0  0  0  0  0  0  0  0  0  0  0
   -1.4383    2.8838    2.2422 Cl  0  0  0  0  0  0  0  0  0  0  0  0
    0.1609   -4.7822   -2.8671 H   0  0  0  0  0  0  0  0  0  0  0  0
    1.5963   -1.7469   -2.2402 H   0  0  0  0  0  0  0  0  0  0  0  0
    2.0875   -3.0265   -0.1708 H   0  0  0  0  0  0  0  0  0  0  0  0
    0.5467   -2.5892    0.5254 H   0  0  0  0  0  0  0  0  0  0  0  0
    3.5494   -0.7683   -0.9524 H   0  0  0  0  0  0  0  0  0  0  0  0
    4.5701    1.1960    0.1546 H   0  0  0  0  0  0  0  0  0  0  0  0
    1.6650    0.9907    3.2922 H   0  0  0  0  0  0  0  0  0  0  0  0
    0.6171   -0.9835    2.2181 H   0  0  0  0  0  0  0  0  0  0  0  0
   -1.0310   -0.9115   -1.0819 H   0  0  0  0  0  0  0  0  0  0  0  0
   -0.1218    2.8360   -3.4608 H   0  0  0  0  0  0  0  0  0  0  0  0
   -2.9130   -2.2274    0.6504 H   0  0  0  0  0  0  0  0  0  0  0  0
   -3.1850   -1.5457    3.0410 H   0  0  0  0  0  0  0  0  0  0  0  0
   -2.5469    0.7668    3.6966 H   0  0  0  0  0  0  0  0  0  0  0  0
  1  2  1  0
  2  3  2  0
  2  4  1  0
  4  5  1  0
  5  6  1  0
  6  7  2  0
  7  8  1  0
  8  9  2  0
  9 10  1  0
  9 11  1  0
 11 12  2  0
  4 13  1  0
 13 14  1  0
 14 15  2  0
 14 16  1  0
 16 17  2  0
 17 18  1  0
 18 19  1  0
 18 20  2  0
 20 21  1  0
 20 22  1  0
 22 23  1  0
 23 24  2  0
 24 25  1  0
 25 26  2  0
 26 27  1  0
 27 28  2  0
 28 29  1  0
 12  6  1  0
 22 16  1  0
 28 23  1  0
  1 30  1  0
  4 31  1  0
  5 32  1  0
  5 33  1  0
  7 34  1  0
  8 35  1  0
 11 36  1  0
 12 37  1  0
 13 38  1  0
 17 39  1  0
 25 40  1  0
 26 41  1  0
 27 42  1  0
M  END
>  <Unnamed: 0>  (26) 
159

>  <ID>  (26) 
TRAIN_0159

>  <Canonical_Smiles>  (26) 
OC(=O)C(Cc1ccc(F)cc1)NC(=O)c2cc(Br)c(F)n2c3ncccc3Cl

>  <Inhibition>  (26) 
23.5

>  <TDC_conf_true_inhibitor>  (26) 
0

>  <TDC_conf_non_inhibitor>  (26) 
1

>  <split>  (26) 
1

$$$$
26
     RDKit          3D

 38 39  0  0  0  0  0  0  0  0999 V2000
   -3.0106    1.8907    1.5348 C   0  0  0  0  0  0  0  0  0  0  0  0
   -3.5523    0.7807    0.6366 C   0  0  0  0  0  0  0  0  0  0  0  0
   -5.0111    1.0602    0.2833 C   0  0  0  0  0  0  0  0  0  0  0  0
   -2.8130    0.7586   -0.6004 O   0  0  0  0  0  0  0  0  0  0  0  0
   -1.8366   -0.1993   -0.6127 C   0  0  0  0  0  0  0  0  0  0  0  0
   -0.5335    0.1827   -0.2726 C   0  0  0  0  0  0  0  0  0  0  0  0
    0.5460   -0.7244   -0.3184 C   0  0  0  0  0  0  0  0  0  0  0  0
    0.2660   -2.0379   -0.7496 C   0  0  0  0  0  0  0  0  0  0  0  0
   -1.0237   -2.4290   -1.1270 C   0  0  0  0  0  0  0  0  0  0  0  0
   -2.0590   -1.4968   -1.0587 C   0  0  0  0  0  0  0  0  0  0  0  0
   -3.3754   -1.9071   -1.4812 N   0  0  0  0  0  4  0  0  0  0  0  0
   -4.1691   -2.2444   -0.5919 O   0  0  0  0  0  0  0  0  0  0  0  0
   -3.5920   -1.9375   -2.6997 O   0  0  0  0  0  1  0  0  0  0  0  0
    1.8464   -0.3209    0.0425 N   0  0  0  0  0  0  0  0  0  0  0  0
    2.9974   -1.0559   -0.4967 C   0  0  0  0  0  0  0  0  0  0  0  0
    4.2382   -0.1502   -0.4758 C   0  0  0  0  0  0  0  0  0  0  0  0
    4.3813    0.4328    0.8678 N   0  0  0  0  0  0  0  0  0  0  0  0
    5.6317    1.1824    0.9831 C   0  0  0  0  0  0  0  0  0  0  0  0
    3.2915    1.0433    1.4222 N   0  0  0  0  0  0  0  0  0  0  0  0
    2.1314    0.6328    1.0015 C   0  0  0  0  0  0  0  0  0  0  0  0
   -3.0159    2.8557    1.0154 H   0  0  0  0  0  0  0  0  0  0  0  0
   -1.9727    1.6935    1.8185 H   0  0  0  0  0  0  0  0  0  0  0  0
   -3.6003    1.9810    2.4517 H   0  0  0  0  0  0  0  0  0  0  0  0
   -3.4919   -0.1793    1.1659 H   0  0  0  0  0  0  0  0  0  0  0  0
   -5.1105    2.0197   -0.2377 H   0  0  0  0  0  0  0  0  0  0  0  0
   -5.3991    0.2948   -0.3969 H   0  0  0  0  0  0  0  0  0  0  0  0
   -5.6398    1.0809    1.1787 H   0  0  0  0  0  0  0  0  0  0  0  0
   -0.3633    1.2250   -0.0087 H   0  0  0  0  0  0  0  0  0  0  0  0
    1.0516   -2.7898   -0.7886 H   0  0  0  0  0  0  0  0  0  0  0  0
   -1.2054   -3.4445   -1.4701 H   0  0  0  0  0  0  0  0  0  0  0  0
    2.8242   -1.3737   -1.5333 H   0  0  0  0  0  0  0  0  0  0  0  0
    3.1807   -1.9502    0.1153 H   0  0  0  0  0  0  0  0  0  0  0  0
    5.1168   -0.7487   -0.7421 H   0  0  0  0  0  0  0  0  0  0  0  0
    4.1284    0.6467   -1.2231 H   0  0  0  0  0  0  0  0  0  0  0  0
    6.4898    0.5672    0.6902 H   0  0  0  0  0  0  0  0  0  0  0  0
    5.7973    1.4903    2.0215 H   0  0  0  0  0  0  0  0  0  0  0  0
    5.6140    2.0823    0.3584 H   0  0  0  0  0  0  0  0  0  0  0  0
    1.2426    1.0884    1.4653 H   0  0  0  0  0  0  0  0  0  0  0  0
  1  2  1  0
  2  3  1  0
  2  4  1  0
  4  5  1  0
  5  6  2  0
  6  7  1  0
  7  8  2  0
  8  9  1  0
  9 10  2  0
 10 11  1  0
 11 12  2  0
 11 13  1  0
  7 14  1  0
 14 15  1  0
 15 16  1  0
 16 17  1  0
 17 18  1  0
 17 19  1  0
 19 20  2  0
 10  5  1  0
 20 14  1  0
  1 21  1  0
  1 22  1  0
  1 23  1  0
  2 24  1  0
  3 25  1  0
  3 26  1  0
  3 27  1  0
  6 28  1  0
  8 29  1  0
  9 30  1  0
 15 31  1  0
 15 32  1  0
 16 33  1  0
 16 34  1  0
 18 35  1  0
 18 36  1  0
 18 37  1  0
 20 38  1  0
M  CHG  2  11   1  13  -1
M  END
>  <Unnamed: 0>  (27) 
173

>  <ID>  (27) 
TRAIN_0173

>  <Canonical_Smiles>  (27) 
CC(C)Oc1cc(ccc1[N+](=O)[O-])N2CCN(C)N=C2

>  <Inhibition>  (27) 
7.84

>  <TDC_conf_true_inhibitor>  (27) 
0

>  <TDC_conf_non_inhibitor>  (27) 
1

>  <split>  (27) 
1

$$$$
27
     RDKit          3D

 46 48  0  0  0  0  0  0  0  0999 V2000
   -3.0374   -2.9165    0.3581 C   0  0  0  0  0  0  0  0  0  0  0  0
   -2.5078   -1.6664   -0.2899 C   0  0  0  0  0  0  0  0  0  0  0  0
   -2.7179   -1.4002   -1.4692 O   0  0  0  0  0  0  0  0  0  0  0  0
   -1.7541   -0.8738    0.5368 N   0  0  0  0  0  0  0  0  0  0  0  0
   -1.1322    0.3646    0.0620 C   0  0  0  0  0  0  0  0  0  0  0  0
    0.0541    0.1263   -0.9426 C   0  0  0  0  0  0  0  0  0  0  0  0
    1.1862   -0.4942   -0.3055 O   0  0  0  0  0  0  0  0  0  0  0  0
    1.3161   -1.8519   -0.2865 C   0  0  0  0  0  0  0  0  0  0  0  0
    2.2490   -2.3211    0.6460 C   0  0  0  0  0  0  0  0  0  0  0  0
    2.4931   -3.6887    0.7915 C   0  0  0  0  0  0  0  0  0  0  0  0
    1.8075   -4.5960   -0.0090 C   0  0  0  0  0  0  0  0  0  0  0  0
    2.0959   -6.2822    0.1650 Cl  0  0  0  0  0  0  0  0  0  0  0  0
    0.8913   -4.1423   -0.9542 C   0  0  0  0  0  0  0  0  0  0  0  0
    0.6501   -2.7701   -1.0973 C   0  0  0  0  0  0  0  0  0  0  0  0
    0.5024    1.4385   -1.5877 C   0  0  0  0  0  0  0  0  0  0  0  0
    1.5485    2.2090   -1.0567 C   0  0  0  0  0  0  0  0  0  0  0  0
    1.9167    3.4165   -1.6528 C   0  0  0  0  0  0  0  0  0  0  0  0
    1.2446    3.8707   -2.7853 C   0  0  0  0  0  0  0  0  0  0  0  0
    0.2019    3.1197   -3.3228 C   0  0  0  0  0  0  0  0  0  0  0  0
   -0.1691    1.9127   -2.7278 C   0  0  0  0  0  0  0  0  0  0  0  0
   -0.7955    1.2494    1.2594 C   0  0  0  0  0  0  0  0  0  0  0  0
    0.0763    0.8265    2.2764 C   0  0  0  0  0  0  0  0  0  0  0  0
    0.3672    1.6579    3.3600 C   0  0  0  0  0  0  0  0  0  0  0  0
   -0.2092    2.9226    3.4444 C   0  0  0  0  0  0  0  0  0  0  0  0
   -1.0765    3.3579    2.4457 C   0  0  0  0  0  0  0  0  0  0  0  0
   -1.3688    2.5278    1.3618 C   0  0  0  0  0  0  0  0  0  0  0  0
   -2.9226   -2.8875    1.4453 H   0  0  0  0  0  0  0  0  0  0  0  0
   -2.4940   -3.7805   -0.0334 H   0  0  0  0  0  0  0  0  0  0  0  0
   -4.1022   -3.0143    0.1284 H   0  0  0  0  0  0  0  0  0  0  0  0
   -1.4931   -1.2149    1.4519 H   0  0  0  0  0  0  0  0  0  0  0  0
   -1.9236    0.8720   -0.5086 H   0  0  0  0  0  0  0  0  0  0  0  0
   -0.2932   -0.4904   -1.7752 H   0  0  0  0  0  0  0  0  0  0  0  0
    2.7928   -1.6118    1.2663 H   0  0  0  0  0  0  0  0  0  0  0  0
    3.2186   -4.0332    1.5231 H   0  0  0  0  0  0  0  0  0  0  0  0
    0.3644   -4.8477   -1.5922 H   0  0  0  0  0  0  0  0  0  0  0  0
   -0.0554   -2.4687   -1.8643 H   0  0  0  0  0  0  0  0  0  0  0  0
    2.0813    1.8767   -0.1679 H   0  0  0  0  0  0  0  0  0  0  0  0
    2.7285    4.0025   -1.2299 H   0  0  0  0  0  0  0  0  0  0  0  0
    1.5336    4.8104   -3.2483 H   0  0  0  0  0  0  0  0  0  0  0  0
   -0.3231    3.4732   -4.2063 H   0  0  0  0  0  0  0  0  0  0  0  0
   -0.9887    1.3414   -3.1612 H   0  0  0  0  0  0  0  0  0  0  0  0
    0.5454   -0.1528    2.2317 H   0  0  0  0  0  0  0  0  0  0  0  0
    1.0475    1.3191    4.1372 H   0  0  0  0  0  0  0  0  0  0  0  0
    0.0193    3.5706    4.2863 H   0  0  0  0  0  0  0  0  0  0  0  0
   -1.5242    4.3465    2.5070 H   0  0  0  0  0  0  0  0  0  0  0  0
   -2.0438    2.8927    0.5897 H   0  0  0  0  0  0  0  0  0  0  0  0
  1  2  1  0
  2  3  2  0
  2  4  1  0
  4  5  1  0
  5  6  1  0
  6  7  1  0
  7  8  1  0
  8  9  2  0
  9 10  1  0
 10 11  2  0
 11 12  1  0
 11 13  1  0
 13 14  2  0
  6 15  1  0
 15 16  2  0
 16 17  1  0
 17 18  2  0
 18 19  1  0
 19 20  2  0
  5 21  1  0
 21 22  2  0
 22 23  1  0
 23 24  2  0
 24 25  1  0
 25 26  2  0
 14  8  1  0
 20 15  1  0
 26 21  1  0
  1 27  1  0
  1 28  1  0
  1 29  1  0
  4 30  1  0
  5 31  1  0
  6 32  1  0
  9 33  1  0
 10 34  1  0
 13 35  1  0
 14 36  1  0
 16 37  1  0
 17 38  1  0
 18 39  1  0
 19 40  1  0
 20 41  1  0
 22 42  1  0
 23 43  1  0
 24 44  1  0
 25 45  1  0
 26 46  1  0
M  END
>  <Unnamed: 0>  (28) 
176

>  <ID>  (28) 
TRAIN_0176

>  <Canonical_Smiles>  (28) 
CC(=O)NC(C(Oc1ccc(Cl)cc1)c2ccccc2)c3ccccc3

>  <Inhibition>  (28) 
34.9

>  <TDC_conf_true_inhibitor>  (28) 
0

>  <TDC_conf_non_inhibitor>  (28) 
0

>  <split>  (28) 
1

$$$$
28
     RDKit          3D

 34 35  0  0  0  0  0  0  0  0999 V2000
   -2.8836    2.9370   -0.3245 O   0  0  0  0  0  0  0  0  0  0  0  0
   -1.8881    2.4494   -1.0948 C   0  0  0  0  0  0  0  0  0  0  0  0
   -1.1459    3.2383   -1.6671 O   0  0  0  0  0  0  0  0  0  0  0  0
   -1.8844    0.9182   -1.2684 C   0  0  0  0  0  0  0  0  0  0  0  0
   -0.5581    0.3632   -1.5461 N   0  0  0  0  0  0  0  0  0  0  0  0
    0.4830    0.5556   -0.6591 C   0  0  0  0  0  0  0  0  0  0  0  0
    0.3954    1.2752    0.3253 O   0  0  0  0  0  0  0  0  0  0  0  0
    1.5967   -0.1464   -1.0690 N   0  0  0  0  0  0  0  0  0  0  0  0
    2.8200   -0.2870   -0.3850 C   0  0  0  0  0  0  0  0  0  0  0  0
    3.0206    0.1159    0.9375 C   0  0  0  0  0  0  0  0  0  0  0  0
    4.2626   -0.0682    1.5558 C   0  0  0  0  0  0  0  0  0  0  0  0
    5.3068   -0.6616    0.8523 C   0  0  0  0  0  0  0  0  0  0  0  0
    6.9832   -0.9110    1.6878 Br  0  0  0  0  0  0  0  0  0  0  0  0
    5.1205   -1.0750   -0.4637 C   0  0  0  0  0  0  0  0  0  0  0  0
    3.8784   -0.8895   -1.0785 C   0  0  0  0  0  0  0  0  0  0  0  0
   -2.6346    0.0839   -0.2379 C   0  0  0  0  0  0  0  0  0  0  0  0
   -2.4519    0.2591    1.1422 C   0  0  0  0  0  0  0  0  0  0  0  0
   -3.1275   -0.5455    2.0625 C   0  0  0  0  0  0  0  0  0  0  0  0
   -3.9917   -1.5425    1.6180 C   0  0  0  0  0  0  0  0  0  0  0  0
   -4.1798   -1.7383    0.2525 C   0  0  0  0  0  0  0  0  0  0  0  0
   -3.5040   -0.9351   -0.6689 C   0  0  0  0  0  0  0  0  0  0  0  0
   -2.7182    3.9027   -0.3228 H   0  0  0  0  0  0  0  0  0  0  0  0
   -2.4245    0.7918   -2.2183 H   0  0  0  0  0  0  0  0  0  0  0  0
   -0.5734   -0.5571   -1.9552 H   0  0  0  0  0  0  0  0  0  0  0  0
    1.5814   -0.4453   -2.0324 H   0  0  0  0  0  0  0  0  0  0  0  0
    2.2261    0.5739    1.5192 H   0  0  0  0  0  0  0  0  0  0  0  0
    4.3972    0.2557    2.5845 H   0  0  0  0  0  0  0  0  0  0  0  0
    5.9306   -1.5402   -1.0188 H   0  0  0  0  0  0  0  0  0  0  0  0
    3.7542   -1.2191   -2.1066 H   0  0  0  0  0  0  0  0  0  0  0  0
   -1.7797    1.0289    1.5179 H   0  0  0  0  0  0  0  0  0  0  0  0
   -2.9746   -0.3914    3.1277 H   0  0  0  0  0  0  0  0  0  0  0  0
   -4.5165   -2.1665    2.3364 H   0  0  0  0  0  0  0  0  0  0  0  0
   -4.8532   -2.5175   -0.0951 H   0  0  0  0  0  0  0  0  0  0  0  0
   -3.6669   -1.1115   -1.7300 H   0  0  0  0  0  0  0  0  0  0  0  0
  1  2  1  0
  2  3  2  0
  2  4  1  0
  4  5  1  0
  5  6  1  0
  6  7  2  0
  6  8  1  0
  8  9  1  0
  9 10  2  0
 10 11  1  0
 11 12  2  0
 12 13  1  0
 12 14  1  0
 14 15  2  0
  4 16  1  0
 16 17  2  0
 17 18  1  0
 18 19  2  0
 19 20  1  0
 20 21  2  0
 15  9  1  0
 21 16  1  0
  1 22  1  0
  4 23  1  0
  5 24  1  0
  8 25  1  0
 10 26  1  0
 11 27  1  0
 14 28  1  0
 15 29  1  0
 17 30  1  0
 18 31  1  0
 19 32  1  0
 20 33  1  0
 21 34  1  0
M  END
>  <Unnamed: 0>  (29) 
180

>  <ID>  (29) 
TRAIN_0180

>  <Canonical_Smiles>  (29) 
OC(=O)C(NC(=O)Nc1ccc(Br)cc1)c2ccccc2

>  <Inhibition>  (29) 
12.2

>  <TDC_conf_true_inhibitor>  (29) 
0

>  <TDC_conf_non_inhibitor>  (29) 
1

>  <split>  (29) 
1

$$$$
29
     RDKit          3D

 41 42  0  0  0  0  0  0  0  0999 V2000
   -6.5407   -1.4099    0.5155 C   0  0  0  0  0  0  0  0  0  0  0  0
   -5.2581   -0.8776    1.1753 C   0  0  0  0  0  0  0  0  0  0  0  0
   -5.5985    0.4072    1.9383 C   0  0  0  0  0  0  0  0  0  0  0  0
   -4.6981   -1.9640    2.1004 C   0  0  0  0  0  0  0  0  0  0  0  0
   -4.3568   -0.6135    0.0690 O   0  0  0  0  0  0  0  0  0  0  0  0
   -3.1181   -0.1205    0.2932 C   0  0  0  0  0  0  0  0  0  0  0  0
   -2.6295    0.1473    1.3791 O   0  0  0  0  0  0  0  0  0  0  0  0
   -2.4874    0.0321   -0.9043 N   0  0  0  0  0  0  0  0  0  0  0  0
   -1.2007    0.6842   -1.0400 C   0  0  0  0  0  0  0  0  0  0  0  0
   -0.0607   -0.1683   -0.4961 C   0  0  0  0  0  0  0  0  0  0  0  0
    1.2879    0.4712   -0.7618 C   0  0  0  0  0  0  0  0  0  0  0  0
    1.3962    1.5072   -1.4062 O   0  0  0  0  0  0  0  0  0  0  0  0
    2.3105   -0.2764   -0.2137 N   0  0  0  0  0  0  0  0  0  0  0  0
    3.6225    0.0981   -0.2978 C   0  0  0  0  0  0  0  0  0  0  0  0
    4.1472    1.1710   -0.8239 N   0  0  0  0  0  0  0  0  0  0  0  0
    5.5229    1.1345   -0.6791 C   0  0  0  0  0  0  0  0  0  0  0  0
    6.4244    2.1226   -1.1168 C   0  0  0  0  0  0  0  0  0  0  0  0
    7.7874    1.9337   -0.9062 C   0  0  0  0  0  0  0  0  0  0  0  0
    8.6501    2.8706   -1.3221 F   0  0  0  0  0  0  0  0  0  0  0  0
    8.2763    0.7953   -0.2793 C   0  0  0  0  0  0  0  0  0  0  0  0
    7.4010   -0.1972    0.1698 C   0  0  0  0  0  0  0  0  0  0  0  0
    6.0243   -0.0042   -0.0380 C   0  0  0  0  0  0  0  0  0  0  0  0
    4.7026   -1.0207    0.4012 S   0  0  0  0  0  0  0  0  0  0  0  0
   -7.3049   -1.6624    1.2583 H   0  0  0  0  0  0  0  0  0  0  0  0
   -6.3303   -2.3037   -0.0823 H   0  0  0  0  0  0  0  0  0  0  0  0
   -6.9597   -0.6698   -0.1761 H   0  0  0  0  0  0  0  0  0  0  0  0
   -4.7374    0.7971    2.4895 H   0  0  0  0  0  0  0  0  0  0  0  0
   -5.9132    1.1972    1.2478 H   0  0  0  0  0  0  0  0  0  0  0  0
   -6.4017    0.2388    2.6635 H   0  0  0  0  0  0  0  0  0  0  0  0
   -3.8152   -1.6222    2.6475 H   0  0  0  0  0  0  0  0  0  0  0  0
   -5.4404   -2.2805    2.8403 H   0  0  0  0  0  0  0  0  0  0  0  0
   -4.3882   -2.8410    1.5219 H   0  0  0  0  0  0  0  0  0  0  0  0
   -3.0639   -0.1218   -1.7204 H   0  0  0  0  0  0  0  0  0  0  0  0
   -1.2440    1.6449   -0.5142 H   0  0  0  0  0  0  0  0  0  0  0  0
   -1.0605    0.8906   -2.1072 H   0  0  0  0  0  0  0  0  0  0  0  0
   -0.1707   -0.3069    0.5846 H   0  0  0  0  0  0  0  0  0  0  0  0
   -0.0740   -1.1587   -0.9647 H   0  0  0  0  0  0  0  0  0  0  0  0
    2.1144   -1.1331    0.2816 H   0  0  0  0  0  0  0  0  0  0  0  0
    6.0601    3.0159   -1.6121 H   0  0  0  0  0  0  0  0  0  0  0  0
    9.3485    0.6844   -0.1374 H   0  0  0  0  0  0  0  0  0  0  0  0
    7.7765   -1.0915    0.6601 H   0  0  0  0  0  0  0  0  0  0  0  0
  1  2  1  0
  2  3  1  0
  2  4  1  0
  2  5  1  0
  5  6  1  0
  6  7  2  0
  6  8  1  0
  8  9  1  0
  9 10  1  0
 10 11  1  0
 11 12  2  0
 11 13  1  0
 13 14  1  0
 14 15  2  0
 15 16  1  0
 16 17  2  0
 17 18  1  0
 18 19  1  0
 18 20  2  0
 20 21  1  0
 21 22  2  0
 22 23  1  0
 23 14  1  0
 22 16  1  0
  1 24  1  0
  1 25  1  0
  1 26  1  0
  3 27  1  0
  3 28  1  0
  3 29  1  0
  4 30  1  0
  4 31  1  0
  4 32  1  0
  8 33  1  0
  9 34  1  0
  9 35  1  0
 10 36  1  0
 10 37  1  0
 13 38  1  0
 17 39  1  0
 20 40  1  0
 21 41  1  0
M  END
>  <Unnamed: 0>  (30) 
182

>  <ID>  (30) 
TRAIN_0182

>  <Canonical_Smiles>  (30) 
CC(C)(C)OC(=O)NCCC(=O)Nc1nc2cc(F)ccc2s1

>  <Inhibition>  (30) 
9.71

>  <TDC_conf_true_inhibitor>  (30) 
0

>  <TDC_conf_non_inhibitor>  (30) 
1

>  <split>  (30) 
1

$$$$
30
     RDKit          3D

 32 33  0  0  0  0  0  0  0  0999 V2000
   -4.4389   -0.3716   -1.2398 C   0  0  0  0  0  0  0  0  0  0  0  0
   -3.2543   -1.2315   -1.1216 N   0  0  0  0  0  0  0  0  0  0  0  0
   -2.1790   -0.9571   -2.0959 C   0  0  0  0  0  0  0  0  0  0  0  0
   -1.1358    0.0369   -1.6129 C   0  0  0  0  0  0  0  0  0  0  0  0
   -1.3702    1.2424   -1.6440 O   0  0  0  0  0  0  0  0  0  0  0  0
   -0.0053   -0.5716   -1.1135 N   0  0  0  0  0  0  0  0  0  0  0  0
    1.1304    0.0475   -0.6589 C   0  0  0  0  0  0  0  0  0  0  0  0
    2.0638   -0.6274   -0.0363 N   0  0  0  0  0  0  0  0  0  0  0  0
    3.1142    0.2150    0.3035 C   0  0  0  0  0  0  0  0  0  0  0  0
    4.2988   -0.1302    0.9910 C   0  0  0  0  0  0  0  0  0  0  0  0
    4.5061   -1.3923    1.3948 F   0  0  0  0  0  0  0  0  0  0  0  0
    5.2727    0.8275    1.2637 C   0  0  0  0  0  0  0  0  0  0  0  0
    5.0729    2.1345    0.8527 C   0  0  0  0  0  0  0  0  0  0  0  0
    6.0124    3.0518    1.1171 F   0  0  0  0  0  0  0  0  0  0  0  0
    3.9217    2.5260    0.1701 C   0  0  0  0  0  0  0  0  0  0  0  0
    2.9517    1.5455   -0.0948 C   0  0  0  0  0  0  0  0  0  0  0  0
    1.4434    1.7002   -0.9082 S   0  0  0  0  0  0  0  0  0  0  0  0
   -2.8471   -1.8491    0.3857 S   0  0  0  0  0  6  0  0  0  0  0  0
   -4.0016   -2.5545    0.8962 O   0  0  0  0  0  0  0  0  0  0  0  0
   -1.5653   -2.5090    0.2358 O   0  0  0  0  0  0  0  0  0  0  0  0
   -2.6196   -0.3961    1.3990 C   0  0  0  0  0  0  0  0  0  0  0  0
   -4.8541   -0.4477   -2.2497 H   0  0  0  0  0  0  0  0  0  0  0  0
   -4.1810    0.6724   -1.0411 H   0  0  0  0  0  0  0  0  0  0  0  0
   -5.2259   -0.6823   -0.5469 H   0  0  0  0  0  0  0  0  0  0  0  0
   -2.6022   -0.5633   -3.0282 H   0  0  0  0  0  0  0  0  0  0  0  0
   -1.7025   -1.9038   -2.3777 H   0  0  0  0  0  0  0  0  0  0  0  0
   -0.0486   -1.5619   -0.8730 H   0  0  0  0  0  0  0  0  0  0  0  0
    6.1773    0.5490    1.7926 H   0  0  0  0  0  0  0  0  0  0  0  0
    3.7894    3.5566   -0.1422 H   0  0  0  0  0  0  0  0  0  0  0  0
   -2.3578   -0.7360    2.4040 H   0  0  0  0  0  0  0  0  0  0  0  0
   -3.5550    0.1641    1.4390 H   0  0  0  0  0  0  0  0  0  0  0  0
   -1.8108    0.2160    1.0046 H   0  0  0  0  0  0  0  0  0  0  0  0
  1  2  1  0
  2  3  1  0
  3  4  1  0
  4  5  2  0
  4  6  1  0
  6  7  1  0
  7  8  2  0
  8  9  1  0
  9 10  2  0
 10 11  1  0
 10 12  1  0
 12 13  2  0
 13 14  1  0
 13 15  1  0
 15 16  2  0
 16 17  1  0
  2 18  1  0
 18 19  2  0
 18 20  2  0
 18 21  1  0
 17  7  1  0
 16  9  1  0
  1 22  1  0
  1 23  1  0
  1 24  1  0
  3 25  1  0
  3 26  1  0
  6 27  1  0
 12 28  1  0
 15 29  1  0
 21 30  1  0
 21 31  1  0
 21 32  1  0
M  END
>  <Unnamed: 0>  (31) 
1351

>  <ID>  (31) 
TRAIN_1351

>  <Canonical_Smiles>  (31) 
CN(CC(=O)Nc1nc2c(F)cc(F)cc2s1)S(=O)(=O)C

>  <Inhibition>  (31) 
0.5

>  <TDC_conf_true_inhibitor>  (31) 
0

>  <TDC_conf_non_inhibitor>  (31) 
1

>  <split>  (31) 
1

$$$$
31
     RDKit          3D

 49 50  0  0  0  0  0  0  0  0999 V2000
    0.6828    0.0000    0.0000 Cl  0  0  0  0  0  0  0  0  0  0  0  0
    8.2455   -1.0409    1.7271 C   0  0  0  0  0  0  0  0  0  0  0  0
    7.6736    0.1219    0.4881 S   0  0  0  0  0  6  0  0  0  0  0  0
    8.0492    1.5130    0.9626 O   0  0  0  0  0  0  0  0  0  0  0  0
    8.3525   -0.0863   -0.8198 O   0  0  0  0  0  0  0  0  0  0  0  0
    5.9366    0.0426    0.3361 C   0  0  0  0  0  0  0  0  0  0  0  0
    5.2779   -0.7908   -0.5324 C   0  0  0  0  0  0  0  0  0  0  0  0
    3.8998   -0.8018   -0.5991 C   0  0  0  0  0  0  0  0  0  0  0  0
    3.1339    0.0283    0.2086 C   0  0  0  0  0  0  0  0  0  0  0  0
    3.7841    0.8691    1.0840 C   0  0  0  0  0  0  0  0  0  0  0  0
    5.1760    0.8664    1.1373 C   0  0  0  0  0  0  0  0  0  0  0  0
    1.6813    0.0517    0.1756 C   0  0  0  0  0  0  0  0  0  0  0  0
    0.9420   -1.0901   -0.1149 C   0  0  0  0  0  0  0  0  0  0  0  0
   -0.4326   -1.0600   -0.1440 C   0  0  0  0  0  0  0  0  0  0  0  0
   -1.0776   -2.2175   -0.4358 F   0  0  0  0  0  0  0  0  0  0  0  0
   -1.1296    0.0962    0.1121 C   0  0  0  0  0  0  0  0  0  0  0  0
   -2.5385    0.1243    0.0815 O   0  0  0  0  0  0  0  0  0  0  0  0
   -3.0946    0.4296   -1.1825 C   0  0  0  0  0  0  0  0  0  0  0  0
   -4.6008    0.4421   -1.1340 C   0  0  0  0  0  0  0  0  0  0  0  0
   -5.0593    1.4871   -0.1411 C   0  0  0  0  0  0  0  0  0  0  0  0
   -6.5661    1.5611   -0.1167 C   0  0  0  0  0  0  0  0  0  0  0  0
   -7.2179    0.4060   -0.6245 N   0  0  0  0  0  0  0  0  0  0  0  0
   -6.5906   -0.8484   -0.3443 C   0  0  0  0  0  0  0  0  0  0  0  0
   -5.1343   -0.9058   -0.7364 C   0  0  0  0  0  0  0  0  0  0  0  0
   -0.3911    1.2228    0.3989 C   0  0  0  0  0  0  0  0  0  0  0  0
   -1.0937    2.3612    0.6508 F   0  0  0  0  0  0  0  0  0  0  0  0
    0.9846    1.2137    0.4330 C   0  0  0  0  0  0  0  0  0  0  0  0
   -0.6828    0.0000    0.0000 H   0  0  0  0  0  0  0  0  0  0  0  0
    8.7196   -1.9245    1.2502 H   0  0  0  0  0  0  0  0  0  0  0  0
    7.3511   -1.4004    2.2718 H   0  0  0  0  0  0  0  0  0  0  0  0
    8.9108   -0.5632    2.4625 H   0  0  0  0  0  0  0  0  0  0  0  0
    5.8579   -1.4457   -1.1709 H   0  0  0  0  0  0  0  0  0  0  0  0
    3.3699   -1.4598   -1.2854 H   0  0  0  0  0  0  0  0  0  0  0  0
    3.1956    1.5159    1.7132 H   0  0  0  0  0  0  0  0  0  0  0  0
    5.6451    1.5330    1.8293 H   0  0  0  0  0  0  0  0  0  0  0  0
    1.5171   -1.9810   -0.3110 H   0  0  0  0  0  0  0  0  0  0  0  0
   -2.7199    1.3913   -1.5831 H   0  0  0  0  0  0  0  0  0  0  0  0
   -2.7661   -0.4133   -1.8568 H   0  0  0  0  0  0  0  0  0  0  0  0
   -4.9697    0.6543   -2.1542 H   0  0  0  0  0  0  0  0  0  0  0  0
   -4.6563    1.2225    0.8476 H   0  0  0  0  0  0  0  0  0  0  0  0
   -4.5960    2.4583   -0.4521 H   0  0  0  0  0  0  0  0  0  0  0  0
   -6.8799    2.4574   -0.7193 H   0  0  0  0  0  0  0  0  0  0  0  0
   -6.8774    1.7234    0.9328 H   0  0  0  0  0  0  0  0  0  0  0  0
   -7.5880    0.4987   -1.5940 H   0  0  0  0  0  0  0  0  0  0  0  0
   -7.1220   -1.6265   -0.9413 H   0  0  0  0  0  0  0  0  0  0  0  0
   -6.6561   -1.0375    0.7471 H   0  0  0  0  0  0  0  0  0  0  0  0
   -4.9635   -1.5894   -1.6119 H   0  0  0  0  0  0  0  0  0  0  0  0
   -4.5203   -1.3234    0.0887 H   0  0  0  0  0  0  0  0  0  0  0  0
    1.5378    2.1368    0.6666 H   0  0  0  0  0  0  0  0  0  0  0  0
  2  3  1  0
  3  4  2  0
  3  5  2  0
  3  6  1  0
  6  7  2  0
  7  8  1  0
  8  9  2  0
  9 10  1  0
 10 11  2  0
  9 12  1  0
 12 13  2  0
 13 14  1  0
 14 15  1  0
 14 16  2  0
 16 17  1  0
 17 18  1  0
 18 19  1  0
 19 20  1  0
 20 21  1  0
 21 22  1  0
 22 23  1  0
 23 24  1  0
 16 25  1  0
 25 26  1  0
 25 27  2  0
 11  6  1  0
 27 12  1  0
 24 19  1  0
  1 28  1  0
  2 29  1  0
  2 30  1  0
  2 31  1  0
  7 32  1  0
  8 33  1  0
 10 34  1  0
 11 35  1  0
 13 36  1  0
 18 37  1  0
 18 38  1  0
 19 39  1  0
 20 40  1  0
 20 41  1  0
 21 42  1  0
 21 43  1  0
 22 44  1  0
 23 45  1  0
 23 46  1  0
 24 47  1  0
 24 48  1  0
 27 49  1  0
M  END
>  <Unnamed: 0>  (32) 
185

>  <ID>  (32) 
TRAIN_0185

>  <Canonical_Smiles>  (32) 
Cl.CS(=O)(=O)c1ccc(cc1)c2cc(F)c(OCC3CCNCC3)c(F)c2

>  <Inhibition>  (32) 
0.0

>  <TDC_conf_true_inhibitor>  (32) 
0

>  <TDC_conf_non_inhibitor>  (32) 
0

>  <split>  (32) 
1

$$$$
32
     RDKit          3D

 36 39  0  0  0  0  0  0  0  0999 V2000
   -4.4818    2.8867   -0.8120 O   0  0  0  0  0  1  0  0  0  0  0  0
   -3.5449    3.1712   -0.0509 N   0  0  0  0  0  4  0  0  0  0  0  0
   -3.4028    4.2660    0.5109 O   0  0  0  0  0  0  0  0  0  0  0  0
   -2.5367    2.1326    0.2010 C   0  0  0  0  0  0  0  0  0  0  0  0
   -1.4557    2.4110    1.0373 C   0  0  0  0  0  0  0  0  0  0  0  0
   -0.4914    1.4319    1.2840 C   0  0  0  0  0  0  0  0  0  0  0  0
   -0.6395    0.1744    0.6725 C   0  0  0  0  0  0  0  0  0  0  0  0
   -1.7186   -0.1294   -0.1724 C   0  0  0  0  0  0  0  0  0  0  0  0
   -2.6845    0.8735   -0.4098 C   0  0  0  0  0  0  0  0  0  0  0  0
   -1.5407   -1.4779   -0.5993 C   0  0  0  0  0  0  0  0  0  0  0  0
   -0.3898   -1.9573   -0.0174 C   0  0  0  0  0  0  0  0  0  0  0  0
    0.1601   -0.9534    0.7352 N   0  0  0  0  0  0  0  0  0  0  0  0
    1.3837   -1.0990    1.5223 C   0  0  0  0  0  0  0  0  0  0  0  0
    2.5556   -0.3684    0.9132 C   0  0  0  0  0  0  0  0  0  0  0  0
    3.2733    0.5688    1.6724 C   0  0  0  0  0  0  0  0  0  0  0  0
    4.3700    1.2372    1.1250 C   0  0  0  0  0  0  0  0  0  0  0  0
    4.7680    0.9713   -0.1831 C   0  0  0  0  0  0  0  0  0  0  0  0
    4.0734    0.0339   -0.9439 C   0  0  0  0  0  0  0  0  0  0  0  0
    2.9768   -0.6361   -0.3987 C   0  0  0  0  0  0  0  0  0  0  0  0
   -2.4095   -2.3565   -1.5380 C   0  0  0  0  0  0  0  0  0  0  0  0
   -2.1467   -3.6065   -1.8625 N   0  0  0  0  0  0  0  0  0  0  0  0
   -3.1569   -4.0058   -2.7044 N   0  0  0  0  0  0  0  0  0  0  0  0
   -4.0272   -3.0257   -2.8991 N   0  0  0  0  0  0  0  0  0  0  0  0
   -3.5609   -2.0001   -2.1736 N   0  0  0  0  0  0  0  0  0  0  0  0
   -1.3409    3.3871    1.5060 H   0  0  0  0  0  0  0  0  0  0  0  0
    0.3548    1.6531    1.9283 H   0  0  0  0  0  0  0  0  0  0  0  0
   -3.5331    0.6796   -1.0554 H   0  0  0  0  0  0  0  0  0  0  0  0
    0.0803   -2.9309   -0.0901 H   0  0  0  0  0  0  0  0  0  0  0  0
    1.1547   -0.7353    2.5308 H   0  0  0  0  0  0  0  0  0  0  0  0
    1.6161   -2.1672    1.6050 H   0  0  0  0  0  0  0  0  0  0  0  0
    2.9856    0.7879    2.6985 H   0  0  0  0  0  0  0  0  0  0  0  0
    4.9168    1.9644    1.7202 H   0  0  0  0  0  0  0  0  0  0  0  0
    5.6221    1.4916   -0.6089 H   0  0  0  0  0  0  0  0  0  0  0  0
    4.3862   -0.1776   -1.9634 H   0  0  0  0  0  0  0  0  0  0  0  0
    2.4527   -1.3677   -1.0109 H   0  0  0  0  0  0  0  0  0  0  0  0
   -4.0685   -1.1276   -2.1690 H   0  0  0  0  0  0  0  0  0  0  0  0
  1  2  1  0
  2  3  2  0
  2  4  1  0
  4  5  2  0
  5  6  1  0
  6  7  2  0
  7  8  1  0
  8  9  2  0
  8 10  1  0
 10 11  2  0
 11 12  1  0
 12 13  1  0
 13 14  1  0
 14 15  2  0
 15 16  1  0
 16 17  2  0
 17 18  1  0
 18 19  2  0
 10 20  1  0
 20 21  2  0
 21 22  1  0
 22 23  2  0
 23 24  1  0
  9  4  1  0
 12  7  1  0
 19 14  1  0
 24 20  1  0
  5 25  1  0
  6 26  1  0
  9 27  1  0
 11 28  1  0
 13 29  1  0
 13 30  1  0
 15 31  1  0
 16 32  1  0
 17 33  1  0
 18 34  1  0
 19 35  1  0
 24 36  1  0
M  CHG  2   1  -1   2   1
M  END
>  <Unnamed: 0>  (33) 
195

>  <ID>  (33) 
TRAIN_0195

>  <Canonical_Smiles>  (33) 
[O-][N+](=O)c1ccc2c(c1)c(cn2Cc3ccccc3)c4nnn[nH]4

>  <Inhibition>  (33) 
42.4

>  <TDC_conf_true_inhibitor>  (33) 
1

>  <TDC_conf_non_inhibitor>  (33) 
0

>  <split>  (33) 
1

$$$$
33
     RDKit          3D

 67 69  0  0  0  0  0  0  0  0999 V2000
    0.6828    0.0000    0.0000 Cl  0  0  0  0  0  0  0  0  0  0  0  0
    0.7881    2.4004   -1.4960 C   0  0  0  0  0  0  0  0  0  0  0  0
    0.4859    1.7112   -0.1921 C   0  0  1  0  0  0  0  0  0  0  0  0
   -0.9309    1.6507    0.0563 N   0  0  0  0  0  0  0  0  0  0  0  0
   -1.5004    2.2997    1.1850 C   0  0  0  0  0  0  0  0  0  0  0  0
   -0.7043    2.9193    1.9380 O   0  0  0  0  0  0  0  0  0  0  0  0
   -2.9599    2.2726    1.4963 C   0  0  0  0  0  0  0  0  0  0  0  0
   -3.5745    3.6320    1.4184 C   0  0  0  0  0  0  0  0  0  0  0  0
   -4.0694    3.6703   -0.0190 C   0  0  0  0  0  0  0  0  0  0  0  0
   -4.5334    2.2487   -0.2887 C   0  0  0  0  0  0  0  0  0  0  0  0
   -3.6615    1.4580    0.5423 N   0  0  0  0  0  0  0  0  0  0  0  0
   -3.4965    0.0546    0.4407 C   0  0  0  0  0  0  0  0  0  0  0  0
   -2.7023   -0.5160    1.2477 O   0  0  0  0  0  0  0  0  0  0  0  0
   -4.2377   -0.7217   -0.5893 C   0  0  0  0  0  0  0  0  0  0  0  0
   -5.7212   -0.7436   -0.3791 C   0  0  0  0  0  0  0  0  0  0  0  0
   -6.1668   -2.0356   -0.9879 C   0  0  0  0  0  0  0  0  0  0  0  0
   -4.9379   -2.8889   -1.0459 C   0  0  0  0  0  0  0  0  0  0  0  0
   -3.8649   -2.1259   -0.4892 N   0  0  0  0  0  0  0  0  0  0  0  0
    1.1216    0.3702   -0.1110 C   0  0  0  0  0  0  0  0  0  0  0  0
    0.3843   -0.6126    0.1521 O   0  0  0  0  0  0  0  0  0  0  0  0
    2.4978    0.1437   -0.3120 N   0  0  0  0  0  0  0  0  0  0  0  0
    3.1377   -1.1465   -0.2385 C   0  0  0  0  0  0  0  0  0  0  0  0
    3.8827   -1.5062   -1.4414 C   0  0  0  0  0  0  0  0  0  0  0  0
    5.1420   -2.0528   -1.3326 C   0  0  0  0  0  0  0  0  0  0  0  0
    5.8980   -2.4142   -2.4320 C   0  0  0  0  0  0  0  0  0  0  0  0
    5.3785   -2.2237   -3.6995 C   0  0  0  0  0  0  0  0  0  0  0  0
    4.1325   -1.6835   -3.8287 C   0  0  0  0  0  0  0  0  0  0  0  0
    3.3859   -1.3257   -2.7144 C   0  0  0  0  0  0  0  0  0  0  0  0
    4.0928   -1.0999    0.9150 C   0  0  0  0  0  0  0  0  0  0  0  0
    4.9019   -0.0087    1.0573 C   0  0  0  0  0  0  0  0  0  0  0  0
    5.8005    0.0813    2.1072 C   0  0  0  0  0  0  0  0  0  0  0  0
    5.8564   -0.9605    3.0050 C   0  0  0  0  0  0  0  0  0  0  0  0
    5.0455   -2.0696    2.8746 C   0  0  0  0  0  0  0  0  0  0  0  0
    4.1663   -2.1279    1.8238 C   0  0  0  0  0  0  0  0  0  0  0  0
   -0.6828    0.0000    0.0000 H   0  0  0  0  0  0  0  0  0  0  0  0
    0.7494    1.7075   -2.3611 H   0  0  0  0  0  0  0  0  0  0  0  0
   -0.0153    3.1578   -1.6600 H   0  0  0  0  0  0  0  0  0  0  0  0
    1.7338    2.9421   -1.4115 H   0  0  0  0  0  0  0  0  0  0  0  0
    0.9774    2.3231    0.6195 H   0  0  0  0  0  0  0  0  0  0  0  0
   -1.5389    1.1252   -0.6047 H   0  0  0  0  0  0  0  0  0  0  0  0
   -3.0647    1.8715    2.5174 H   0  0  0  0  0  0  0  0  0  0  0  0
   -2.8554    4.4591    1.6237 H   0  0  0  0  0  0  0  0  0  0  0  0
   -4.4702    3.7145    2.0644 H   0  0  0  0  0  0  0  0  0  0  0  0
   -4.8878    4.3900   -0.1770 H   0  0  0  0  0  0  0  0  0  0  0  0
   -3.2254    3.9738   -0.6664 H   0  0  0  0  0  0  0  0  0  0  0  0
   -4.3986    2.0053   -1.3571 H   0  0  0  0  0  0  0  0  0  0  0  0
   -5.6078    2.2060    0.0441 H   0  0  0  0  0  0  0  0  0  0  0  0
   -4.0129   -0.2953   -1.5805 H   0  0  0  0  0  0  0  0  0  0  0  0
   -5.9815   -0.6680    0.7101 H   0  0  0  0  0  0  0  0  0  0  0  0
   -6.1509    0.1377   -0.9403 H   0  0  0  0  0  0  0  0  0  0  0  0
   -7.0013   -2.5139   -0.4271 H   0  0  0  0  0  0  0  0  0  0  0  0
   -6.4792   -1.8163   -2.0490 H   0  0  0  0  0  0  0  0  0  0  0  0
   -4.6553   -3.1408   -2.1090 H   0  0  0  0  0  0  0  0  0  0  0  0
   -5.0724   -3.8302   -0.4800 H   0  0  0  0  0  0  0  0  0  0  0  0
   -3.6676   -2.3691    0.4860 H   0  0  0  0  0  0  0  0  0  0  0  0
    3.0926    0.9720   -0.5300 H   0  0  0  0  0  0  0  0  0  0  0  0
    2.4063   -1.9480   -0.0082 H   0  0  0  0  0  0  0  0  0  0  0  0
    5.5633   -2.2087   -0.3531 H   0  0  0  0  0  0  0  0  0  0  0  0
    6.8852   -2.8428   -2.3533 H   0  0  0  0  0  0  0  0  0  0  0  0
    5.9640   -2.5047   -4.5860 H   0  0  0  0  0  0  0  0  0  0  0  0
    3.7428   -1.5426   -4.8485 H   0  0  0  0  0  0  0  0  0  0  0  0
    2.4037   -0.9000   -2.8148 H   0  0  0  0  0  0  0  0  0  0  0  0
    4.9071    0.8494    0.3810 H   0  0  0  0  0  0  0  0  0  0  0  0
    6.4547    0.9243    2.2536 H   0  0  0  0  0  0  0  0  0  0  0  0
    6.5416   -0.9638    3.8627 H   0  0  0  0  0  0  0  0  0  0  0  0
    5.1136   -2.8866    3.6089 H   0  0  0  0  0  0  0  0  0  0  0  0
    3.5132   -2.9781    1.6845 H   0  0  0  0  0  0  0  0  0  0  0  0
  2  3  1  0
  3  4  1  0
  4  5  1  0
  5  6  2  0
  5  7  1  0
  7  8  1  0
  8  9  1  0
  9 10  1  0
 10 11  1  0
 11 12  1  0
 12 13  2  0
 12 14  1  0
 14 15  1  0
 15 16  1  0
 16 17  1  0
 17 18  1  0
  3 19  1  0
 19 20  2  0
 19 21  1  0
 21 22  1  0
 22 23  1  0
 23 24  2  0
 24 25  1  0
 25 26  2  0
 26 27  1  0
 27 28  2  0
 22 29  1  0
 29 30  2  0
 30 31  1  0
 31 32  2  0
 32 33  1  0
 33 34  2  0
 11  7  1  0
 18 14  1  0
 28 23  1  0
 34 29  1  0
  1 35  1  0
  2 36  1  0
  2 37  1  0
  2 38  1  0
  3 39  1  1
  4 40  1  0
  7 41  1  0
  8 42  1  0
  8 43  1  0
  9 44  1  0
  9 45  1  0
 10 46  1  0
 10 47  1  0
 14 48  1  0
 15 49  1  0
 15 50  1  0
 16 51  1  0
 16 52  1  0
 17 53  1  0
 17 54  1  0
 18 55  1  0
 21 56  1  0
 22 57  1  0
 24 58  1  0
 25 59  1  0
 26 60  1  0
 27 61  1  0
 28 62  1  0
 30 63  1  0
 31 64  1  0
 32 65  1  0
 33 66  1  0
 34 67  1  0
M  END
>  <Unnamed: 0>  (34) 
198

>  <ID>  (34) 
TRAIN_0198

>  <Canonical_Smiles>  (34) 
Cl.C[C@@H](NC(=O)C1CCCN1C(=O)C2CCCN2)C(=O)NC(c3ccccc3)c4ccccc4

>  <Inhibition>  (34) 
40.5

>  <TDC_conf_true_inhibitor>  (34) 
1

>  <TDC_conf_non_inhibitor>  (34) 
0

>  <split>  (34) 
1

$$$$
34
     RDKit          3D

 52 55  0  0  0  0  0  0  0  0999 V2000
   -5.4396   -2.3709   -2.4639 F   0  0  0  0  0  0  0  0  0  0  0  0
   -5.6013   -1.7861   -1.2703 C   0  0  0  0  0  0  0  0  0  0  0  0
   -6.8680   -1.7558   -0.6921 C   0  0  0  0  0  0  0  0  0  0  0  0
   -7.0506   -1.1442    0.5491 C   0  0  0  0  0  0  0  0  0  0  0  0
   -5.9630   -0.5633    1.2040 C   0  0  0  0  0  0  0  0  0  0  0  0
   -4.6985   -0.6012    0.6056 C   0  0  0  0  0  0  0  0  0  0  0  0
   -4.5078   -1.2148   -0.6345 C   0  0  0  0  0  0  0  0  0  0  0  0
   -3.3091    0.1394    1.4142 S   0  0  0  0  0  6  0  0  0  0  0  0
   -3.7842    0.8997    2.5513 O   0  0  0  0  0  0  0  0  0  0  0  0
   -2.2979   -0.8824    1.5700 O   0  0  0  0  0  0  0  0  0  0  0  0
   -2.7780    1.2475    0.2861 N   0  0  0  0  0  0  0  0  0  0  0  0
   -3.6074    2.4114   -0.0724 C   0  0  0  0  0  0  0  0  0  0  0  0
   -2.8406    3.6796    0.2611 C   0  0  0  0  0  0  0  0  0  0  0  0
   -1.1420    3.2815   -0.1809 S   0  0  0  0  0  0  0  0  0  0  0  0
   -1.3336    1.5440    0.3273 C   0  0  0  0  0  0  0  0  0  0  0  0
   -0.5799    0.6164   -0.6551 C   0  0  0  0  0  0  0  0  0  0  0  0
   -1.1477    0.1625   -1.6571 O   0  0  0  0  0  0  0  0  0  0  0  0
    0.7622    0.3248   -0.3943 N   0  0  0  0  0  0  0  0  0  0  0  0
    1.4689    0.7446    0.8146 C   0  0  0  0  0  0  0  0  0  0  0  0
    2.8374    0.0896    0.9640 C   0  0  0  0  0  0  0  0  0  0  0  0
    3.6988    0.2939   -0.2928 C   0  0  0  0  0  0  0  0  0  0  0  0
    2.8982    0.1012   -1.5977 C   0  0  0  0  0  0  0  0  0  0  0  0
    1.5098   -0.4829   -1.3559 C   0  0  0  0  0  0  0  0  0  0  0  0
    4.9451   -0.5742   -0.2357 C   0  0  0  0  0  0  0  0  0  0  0  0
    4.8723   -1.9724   -0.3385 C   0  0  0  0  0  0  0  0  0  0  0  0
    6.0278   -2.7533   -0.2748 C   0  0  0  0  0  0  0  0  0  0  0  0
    7.2708   -2.1479   -0.1053 C   0  0  0  0  0  0  0  0  0  0  0  0
    7.3593   -0.7621   -0.0006 C   0  0  0  0  0  0  0  0  0  0  0  0
    6.2044    0.0203   -0.0644 C   0  0  0  0  0  0  0  0  0  0  0  0
   -7.7046   -2.2121   -1.2133 H   0  0  0  0  0  0  0  0  0  0  0  0
   -8.0375   -1.1244    1.0056 H   0  0  0  0  0  0  0  0  0  0  0  0
   -6.1078   -0.0910    2.1737 H   0  0  0  0  0  0  0  0  0  0  0  0
   -3.5299   -1.2461   -1.1082 H   0  0  0  0  0  0  0  0  0  0  0  0
   -3.8208    2.3583   -1.1473 H   0  0  0  0  0  0  0  0  0  0  0  0
   -4.5734    2.4080    0.4415 H   0  0  0  0  0  0  0  0  0  0  0  0
   -3.2122    4.5450   -0.2942 H   0  0  0  0  0  0  0  0  0  0  0  0
   -2.8878    3.8976    1.3328 H   0  0  0  0  0  0  0  0  0  0  0  0
   -0.9638    1.4584    1.3502 H   0  0  0  0  0  0  0  0  0  0  0  0
    1.5714    1.8347    0.7780 H   0  0  0  0  0  0  0  0  0  0  0  0
    0.8588    0.4903    1.6871 H   0  0  0  0  0  0  0  0  0  0  0  0
    3.3509    0.4969    1.8435 H   0  0  0  0  0  0  0  0  0  0  0  0
    2.6928   -0.9801    1.1652 H   0  0  0  0  0  0  0  0  0  0  0  0
    4.0273    1.3433   -0.2902 H   0  0  0  0  0  0  0  0  0  0  0  0
    3.4379   -0.5130   -2.3279 H   0  0  0  0  0  0  0  0  0  0  0  0
    2.7735    1.0861   -2.0688 H   0  0  0  0  0  0  0  0  0  0  0  0
    1.5753   -1.5003   -0.9538 H   0  0  0  0  0  0  0  0  0  0  0  0
    0.9767   -0.5490   -2.3098 H   0  0  0  0  0  0  0  0  0  0  0  0
    3.9134   -2.4685   -0.4687 H   0  0  0  0  0  0  0  0  0  0  0  0
    5.9572   -3.8350   -0.3569 H   0  0  0  0  0  0  0  0  0  0  0  0
    8.1695   -2.7565   -0.0553 H   0  0  0  0  0  0  0  0  0  0  0  0
    8.3286   -0.2880    0.1310 H   0  0  0  0  0  0  0  0  0  0  0  0
    6.2988    1.1005    0.0200 H   0  0  0  0  0  0  0  0  0  0  0  0
  1  2  1  0
  2  3  2  0
  3  4  1  0
  4  5  2  0
  5  6  1  0
  6  7  2  0
  6  8  1  0
  8  9  2  0
  8 10  2  0
  8 11  1  0
 11 12  1  0
 12 13  1  0
 13 14  1  0
 14 15  1  0
 15 16  1  0
 16 17  2  0
 16 18  1  0
 18 19  1  0
 19 20  1  0
 20 21  1  0
 21 22  1  0
 22 23  1  0
 21 24  1  0
 24 25  2  0
 25 26  1  0
 26 27  2  0
 27 28  1  0
 28 29  2  0
  7  2  1  0
 15 11  1  0
 23 18  1  0
 29 24  1  0
  3 30  1  0
  4 31  1  0
  5 32  1  0
  7 33  1  0
 12 34  1  0
 12 35  1  0
 13 36  1  0
 13 37  1  0
 15 38  1  0
 19 39  1  0
 19 40  1  0
 20 41  1  0
 20 42  1  0
 21 43  1  0
 22 44  1  0
 22 45  1  0
 23 46  1  0
 23 47  1  0
 25 48  1  0
 26 49  1  0
 27 50  1  0
 28 51  1  0
 29 52  1  0
M  END
>  <Unnamed: 0>  (35) 
205

>  <ID>  (35) 
TRAIN_0205

>  <Canonical_Smiles>  (35) 
Fc1cccc(c1)S(=O)(=O)N2CCSC2C(=O)N3CCC(CC3)c4ccccc4

>  <Inhibition>  (35) 
75.0

>  <TDC_conf_true_inhibitor>  (35) 
1

>  <TDC_conf_non_inhibitor>  (35) 
0

>  <split>  (35) 
1

$$$$
35
     RDKit          3D

 61 63  0  0  0  0  0  0  0  0999 V2000
   -6.4658    0.5526   -2.6461 C   0  0  0  0  0  0  0  0  0  0  0  0
   -6.7487    0.3533   -1.1524 C   0  0  0  0  0  0  0  0  0  0  0  0
   -7.1673    1.6591   -0.4673 C   0  0  0  0  0  0  0  0  0  0  0  0
   -7.8898   -0.6655   -1.0025 C   0  0  0  0  0  0  0  0  0  0  0  0
   -5.6201   -0.2610   -0.4791 O   0  0  0  0  0  0  0  0  0  0  0  0
   -4.4194    0.3681   -0.4097 C   0  0  0  0  0  0  0  0  0  0  0  0
   -4.1850    1.4705   -0.8881 O   0  0  0  0  0  0  0  0  0  0  0  0
   -3.4739   -0.3808    0.2687 N   0  0  0  0  0  0  0  0  0  0  0  0
   -3.7252   -1.7182    0.7973 C   0  0  0  0  0  0  0  0  0  0  0  0
   -2.5133   -2.6216    0.5962 C   0  0  0  0  0  0  0  0  0  0  0  0
   -1.2211   -2.0355    1.1697 C   0  0  0  0  0  0  0  0  0  0  0  0
   -1.3259   -0.5507    1.5348 C   0  0  0  0  0  0  0  0  0  0  0  0
   -2.1566    0.2060    0.4918 C   0  0  0  0  0  0  0  0  0  0  0  0
    0.0140   -0.0280    1.6024 O   0  0  0  0  0  0  0  0  0  0  0  0
    0.1730    1.0914    2.3512 C   0  0  0  0  0  0  0  0  0  0  0  0
   -0.7094    1.6676    2.9664 O   0  0  0  0  0  0  0  0  0  0  0  0
    1.5903    1.5444    2.3268 C   0  0  0  0  0  0  0  0  0  0  0  0
    1.9361    2.6667    3.0881 C   0  0  0  0  0  0  0  0  0  0  0  0
    3.2502    3.1296    3.0947 C   0  0  0  0  0  0  0  0  0  0  0  0
    4.2242    2.4756    2.3369 C   0  0  0  0  0  0  0  0  0  0  0  0
    3.9069    1.3484    1.5588 C   0  0  0  0  0  0  0  0  0  0  0  0
    2.5757    0.8933    1.5678 C   0  0  0  0  0  0  0  0  0  0  0  0
    4.9374    0.6700    0.7521 C   0  0  0  0  0  0  0  0  0  0  0  0
    5.7546    1.3997   -0.1317 C   0  0  0  0  0  0  0  0  0  0  0  0
    6.7351    0.7657   -0.9018 C   0  0  0  0  0  0  0  0  0  0  0  0
    6.9017   -0.6165   -0.8011 C   0  0  0  0  0  0  0  0  0  0  0  0
    6.1183   -1.3647    0.0750 C   0  0  0  0  0  0  0  0  0  0  0  0
    5.1461   -0.7177    0.8340 C   0  0  0  0  0  0  0  0  0  0  0  0
    4.4029   -1.4627    1.6668 F   0  0  0  0  0  0  0  0  0  0  0  0
    8.1618   -1.4241   -1.7567 S   0  0  0  0  0  6  0  0  0  0  0  0
    9.1571   -0.4248   -2.0935 O   0  0  0  0  0  0  0  0  0  0  0  0
    8.5306   -2.6347   -1.0498 O   0  0  0  0  0  0  0  0  0  0  0  0
    7.3147   -1.8856   -3.2443 C   0  0  0  0  0  0  0  0  0  0  0  0
   -5.7088    1.3228   -2.8208 H   0  0  0  0  0  0  0  0  0  0  0  0
   -6.0837   -0.3712   -3.0953 H   0  0  0  0  0  0  0  0  0  0  0  0
   -7.3697    0.8548   -3.1860 H   0  0  0  0  0  0  0  0  0  0  0  0
   -6.4202    2.4478   -0.5959 H   0  0  0  0  0  0  0  0  0  0  0  0
   -8.1127    2.0358   -0.8728 H   0  0  0  0  0  0  0  0  0  0  0  0
   -7.2851    1.5109    0.6120 H   0  0  0  0  0  0  0  0  0  0  0  0
   -7.6148   -1.6274   -1.4502 H   0  0  0  0  0  0  0  0  0  0  0  0
   -8.8137   -0.3158   -1.4752 H   0  0  0  0  0  0  0  0  0  0  0  0
   -8.0967   -0.8657    0.0547 H   0  0  0  0  0  0  0  0  0  0  0  0
   -3.9545   -1.6109    1.8636 H   0  0  0  0  0  0  0  0  0  0  0  0
   -4.5988   -2.1723    0.3199 H   0  0  0  0  0  0  0  0  0  0  0  0
   -2.7014   -3.6083    1.0346 H   0  0  0  0  0  0  0  0  0  0  0  0
   -2.3716   -2.7834   -0.4802 H   0  0  0  0  0  0  0  0  0  0  0  0
   -0.9247   -2.5953    2.0656 H   0  0  0  0  0  0  0  0  0  0  0  0
   -0.4040   -2.1970    0.4553 H   0  0  0  0  0  0  0  0  0  0  0  0
   -1.8066   -0.4799    2.5200 H   0  0  0  0  0  0  0  0  0  0  0  0
   -1.6326    0.2175   -0.4723 H   0  0  0  0  0  0  0  0  0  0  0  0
   -2.2741    1.2567    0.7806 H   0  0  0  0  0  0  0  0  0  0  0  0
    1.1828    3.1830    3.6812 H   0  0  0  0  0  0  0  0  0  0  0  0
    3.5177    3.9977    3.6928 H   0  0  0  0  0  0  0  0  0  0  0  0
    5.2464    2.8496    2.3696 H   0  0  0  0  0  0  0  0  0  0  0  0
    2.3106    0.0227    0.9707 H   0  0  0  0  0  0  0  0  0  0  0  0
    5.6278    2.4771   -0.2305 H   0  0  0  0  0  0  0  0  0  0  0  0
    7.3623    1.3584   -1.5657 H   0  0  0  0  0  0  0  0  0  0  0  0
    6.2536   -2.4365    0.1889 H   0  0  0  0  0  0  0  0  0  0  0  0
    8.0285   -2.3935   -3.8963 H   0  0  0  0  0  0  0  0  0  0  0  0
    6.4950   -2.5617   -2.9935 H   0  0  0  0  0  0  0  0  0  0  0  0
    6.9396   -0.9857   -3.7348 H   0  0  0  0  0  0  0  0  0  0  0  0
  1  2  1  0
  2  3  1  0
  2  4  1  0
  2  5  1  0
  5  6  1  0
  6  7  2  0
  6  8  1  0
  8  9  1  0
  9 10  1  0
 10 11  1  0
 11 12  1  0
 12 13  1  0
 12 14  1  0
 14 15  1  0
 15 16  2  0
 15 17  1  0
 17 18  2  0
 18 19  1  0
 19 20  2  0
 20 21  1  0
 21 22  2  0
 21 23  1  0
 23 24  2  0
 24 25  1  0
 25 26  2  0
 26 27  1  0
 27 28  2  0
 28 29  1  0
 26 30  1  0
 30 31  2  0
 30 32  2  0
 30 33  1  0
 13  8  1  0
 22 17  1  0
 28 23  1  0
  1 34  1  0
  1 35  1  0
  1 36  1  0
  3 37  1  0
  3 38  1  0
  3 39  1  0
  4 40  1  0
  4 41  1  0
  4 42  1  0
  9 43  1  0
  9 44  1  0
 10 45  1  0
 10 46  1  0
 11 47  1  0
 11 48  1  0
 12 49  1  0
 13 50  1  0
 13 51  1  0
 18 52  1  0
 19 53  1  0
 20 54  1  0
 22 55  1  0
 24 56  1  0
 25 57  1  0
 27 58  1  0
 33 59  1  0
 33 60  1  0
 33 61  1  0
M  END
>  <Unnamed: 0>  (36) 
214

>  <ID>  (36) 
TRAIN_0214

>  <Canonical_Smiles>  (36) 
CC(C)(C)OC(=O)N1CCCC(C1)OC(=O)c2cccc(c2)c3ccc(cc3F)S(=O)(=O)C

>  <Inhibition>  (36) 
32.4

>  <TDC_conf_true_inhibitor>  (36) 
1

>  <TDC_conf_non_inhibitor>  (36) 
0

>  <split>  (36) 
1

$$$$
36
     RDKit          3D

 24 24  0  0  0  0  0  0  0  0999 V2000
   -3.7551   -0.9091   -2.4900 C   0  0  0  0  0  0  0  0  0  0  0  0
   -1.9861   -0.5365   -2.5509 S   0  0  0  0  0  0  0  0  0  0  0  0
   -1.6107   -0.4715   -0.8164 C   0  0  0  0  0  0  0  0  0  0  0  0
   -2.5896   -0.6919    0.0774 N   0  0  0  0  0  0  0  0  0  0  0  0
   -2.2393   -0.6270    1.3793 C   0  0  0  0  0  0  0  0  0  0  0  0
   -0.9643   -0.3539    1.8136 C   0  0  0  0  0  0  0  0  0  0  0  0
   -0.5699   -0.2819    3.6536 Br  0  0  0  0  0  0  0  0  0  0  0  0
   -0.0361   -0.1451    0.8144 C   0  0  0  0  0  0  0  0  0  0  0  0
    1.2615    0.1401    1.1935 O   0  0  0  0  0  0  0  0  0  0  0  0
    2.2033    0.3235    0.1281 C   0  0  0  0  0  0  0  0  0  0  0  0
    3.5783   -0.0147    0.7003 C   0  0  0  0  0  0  0  0  0  0  0  0
    2.1790    1.7739   -0.3474 C   0  0  0  0  0  0  0  0  0  0  0  0
   -0.3363   -0.1981   -0.4984 N   0  0  0  0  0  0  0  0  0  0  0  0
   -3.9351   -1.8658   -1.9917 H   0  0  0  0  0  0  0  0  0  0  0  0
   -4.1377   -0.9799   -3.5120 H   0  0  0  0  0  0  0  0  0  0  0  0
   -4.3032   -0.1149   -1.9752 H   0  0  0  0  0  0  0  0  0  0  0  0
   -3.0507   -0.8086    2.0786 H   0  0  0  0  0  0  0  0  0  0  0  0
    2.0198   -0.3657   -0.7055 H   0  0  0  0  0  0  0  0  0  0  0  0
    3.8152    0.6219    1.5602 H   0  0  0  0  0  0  0  0  0  0  0  0
    4.3634    0.1047   -0.0526 H   0  0  0  0  0  0  0  0  0  0  0  0
    3.5958   -1.0490    1.0609 H   0  0  0  0  0  0  0  0  0  0  0  0
    2.9400    1.9512   -1.1137 H   0  0  0  0  0  0  0  0  0  0  0  0
    1.2033    2.0364   -0.7680 H   0  0  0  0  0  0  0  0  0  0  0  0
    2.3545    2.4618    0.4873 H   0  0  0  0  0  0  0  0  0  0  0  0
  1  2  1  0
  2  3  1  0
  3  4  2  0
  4  5  1  0
  5  6  2  0
  6  7  1  0
  6  8  1  0
  8  9  1  0
  9 10  1  0
 10 11  1  0
 10 12  1  0
  8 13  2  0
 13  3  1  0
  1 14  1  0
  1 15  1  0
  1 16  1  0
  5 17  1  0
 10 18  1  0
 11 19  1  0
 11 20  1  0
 11 21  1  0
 12 22  1  0
 12 23  1  0
 12 24  1  0
M  END
>  <Unnamed: 0>  (37) 
226

>  <ID>  (37) 
TRAIN_0226

>  <Canonical_Smiles>  (37) 
CSc1ncc(Br)c(OC(C)C)n1

>  <Inhibition>  (37) 
13.4

>  <TDC_conf_true_inhibitor>  (37) 
0

>  <TDC_conf_non_inhibitor>  (37) 
1

>  <split>  (37) 
1

$$$$
37
     RDKit          3D

 42 42  0  0  0  0  0  0  0  0999 V2000
   -3.5191   -1.5429   -0.3263 C   0  0  0  0  0  0  0  0  0  0  0  0
   -2.9143   -0.7340    0.8261 C   0  0  0  0  0  0  0  0  0  0  0  0
   -3.9723    0.2567    1.3360 C   0  0  0  0  0  0  0  0  0  0  0  0
   -2.4772   -1.6273    1.9915 C   0  0  0  0  0  0  0  0  0  0  0  0
   -1.8235    0.1039    0.3656 O   0  0  0  0  0  0  0  0  0  0  0  0
   -0.6940   -0.4295   -0.1862 C   0  0  0  0  0  0  0  0  0  0  0  0
   -0.5019   -1.6385   -0.2785 O   0  0  0  0  0  0  0  0  0  0  0  0
    0.1917    0.5329   -0.6184 N   0  0  0  0  0  0  0  0  0  0  0  0
    1.5391    0.2493   -0.6256 C   0  0  0  0  0  0  0  0  0  0  0  0
    2.3360    0.6135   -1.4840 O   0  0  0  0  0  0  0  0  0  0  0  0
    1.8971   -0.5334    0.4354 O   0  0  0  0  0  0  0  0  0  0  0  0
    3.2549   -1.0177    0.5993 C   0  0  0  0  0  0  0  0  0  0  0  0
    4.2395    0.1395    0.7983 C   0  0  0  0  0  0  0  0  0  0  0  0
    3.2137   -1.8534    1.8880 C   0  0  0  0  0  0  0  0  0  0  0  0
    3.6647   -1.9303   -0.5614 C   0  0  0  0  0  0  0  0  0  0  0  0
   -0.2652    1.7156   -1.2340 C   0  0  0  0  0  0  0  0  0  0  0  0
    0.5812    2.7481   -1.3620 N   0  0  0  0  0  0  0  0  0  0  0  0
    0.1198    3.8588   -1.9566 C   0  0  0  0  0  0  0  0  0  0  0  0
    1.2690    5.1263   -2.0777 Cl  0  0  0  0  0  0  0  0  0  0  0  0
   -1.1471    4.0233   -2.4290 C   0  0  0  0  0  0  0  0  0  0  0  0
   -1.9330    2.9271   -2.2417 C   0  0  0  0  0  0  0  0  0  0  0  0
   -3.5709    2.9237   -2.7509 Cl  0  0  0  0  0  0  0  0  0  0  0  0
   -1.5355    1.7842   -1.6622 N   0  0  0  0  0  0  0  0  0  0  0  0
   -2.8342   -2.3155   -0.6883 H   0  0  0  0  0  0  0  0  0  0  0  0
   -3.7412   -0.8946   -1.1815 H   0  0  0  0  0  0  0  0  0  0  0  0
   -4.4436   -2.0437   -0.0192 H   0  0  0  0  0  0  0  0  0  0  0  0
   -4.8617   -0.2570    1.7158 H   0  0  0  0  0  0  0  0  0  0  0  0
   -3.5650    0.8831    2.1383 H   0  0  0  0  0  0  0  0  0  0  0  0
   -4.2820    0.9411    0.5373 H   0  0  0  0  0  0  0  0  0  0  0  0
   -3.3347   -2.1317    2.4499 H   0  0  0  0  0  0  0  0  0  0  0  0
   -1.9661   -1.0388    2.7617 H   0  0  0  0  0  0  0  0  0  0  0  0
   -1.7749   -2.4031    1.6725 H   0  0  0  0  0  0  0  0  0  0  0  0
    4.3669    0.7309   -0.1132 H   0  0  0  0  0  0  0  0  0  0  0  0
    5.2296   -0.2261    1.0912 H   0  0  0  0  0  0  0  0  0  0  0  0
    3.8793    0.8277    1.5712 H   0  0  0  0  0  0  0  0  0  0  0  0
    2.4888   -2.6712    1.7989 H   0  0  0  0  0  0  0  0  0  0  0  0
    4.1924   -2.2830    2.1264 H   0  0  0  0  0  0  0  0  0  0  0  0
    2.8870   -1.2430    2.7380 H   0  0  0  0  0  0  0  0  0  0  0  0
    3.7809   -1.3760   -1.4974 H   0  0  0  0  0  0  0  0  0  0  0  0
    2.9012   -2.6953   -0.7424 H   0  0  0  0  0  0  0  0  0  0  0  0
    4.6177   -2.4304   -0.3576 H   0  0  0  0  0  0  0  0  0  0  0  0
   -1.4931    4.9303   -2.8992 H   0  0  0  0  0  0  0  0  0  0  0  0
  1  2  1  0
  2  3  1  0
  2  4  1  0
  2  5  1  0
  5  6  1  0
  6  7  2  0
  6  8  1  0
  8  9  1  0
  9 10  2  0
  9 11  1  0
 11 12  1  0
 12 13  1  0
 12 14  1  0
 12 15  1  0
  8 16  1  0
 16 17  2  0
 17 18  1  0
 18 19  1  0
 18 20  2  0
 20 21  1  0
 21 22  1  0
 21 23  2  0
 23 16  1  0
  1 24  1  0
  1 25  1  0
  1 26  1  0
  3 27  1  0
  3 28  1  0
  3 29  1  0
  4 30  1  0
  4 31  1  0
  4 32  1  0
 13 33  1  0
 13 34  1  0
 13 35  1  0
 14 36  1  0
 14 37  1  0
 14 38  1  0
 15 39  1  0
 15 40  1  0
 15 41  1  0
 20 42  1  0
M  END
>  <Unnamed: 0>  (38) 
269

>  <ID>  (38) 
TRAIN_0269

>  <Canonical_Smiles>  (38) 
CC(C)(C)OC(=O)N(C(=O)OC(C)(C)C)c1nc(Cl)cc(Cl)n1

>  <Inhibition>  (38) 
2.2

>  <TDC_conf_true_inhibitor>  (38) 
0

>  <TDC_conf_non_inhibitor>  (38) 
1

>  <split>  (38) 
1

$$$$
38
     RDKit          3D

 39 39  0  0  0  0  0  0  0  0999 V2000
   -5.1740    1.7284    1.0610 C   0  0  0  0  0  0  0  0  0  0  0  0
   -4.6572    0.3175    0.8517 C   0  0  0  0  0  0  0  0  0  0  0  0
   -3.6964    0.2959   -0.2145 O   0  0  0  0  0  0  0  0  0  0  0  0
   -2.4056    0.5565    0.1444 C   0  0  0  0  0  0  0  0  0  0  0  0
   -2.0356    0.8427    1.2746 O   0  0  0  0  0  0  0  0  0  0  0  0
   -1.5219    0.5042   -1.0812 C   0  0  0  0  0  0  0  0  0  0  0  0
   -0.0649    0.3449   -0.7459 C   0  0  0  0  0  0  0  0  0  0  0  0
    0.8276    1.4027   -0.6544 C   0  0  0  0  0  0  0  0  0  0  0  0
    0.4120    2.8240   -0.8984 C   0  0  0  0  0  0  0  0  0  0  0  0
    2.1293    1.2227   -0.3430 N   0  0  0  0  0  0  0  0  0  0  0  0
    2.5308   -0.0328   -0.0913 C   0  0  0  0  0  0  0  0  0  0  0  0
    3.8477   -0.2831    0.2283 O   0  0  0  0  0  0  0  0  0  0  0  0
    4.6366    0.8998    0.3257 C   0  0  0  0  0  0  0  0  0  0  0  0
    6.0474    0.4901    0.7101 C   0  0  0  0  0  0  0  0  0  0  0  0
    1.7542   -1.1161   -0.1280 N   0  0  0  0  0  0  0  0  0  0  0  0
    0.4686   -0.8983   -0.4427 C   0  0  0  0  0  0  0  0  0  0  0  0
   -0.4012   -1.9745   -0.4849 O   0  0  0  0  0  0  0  0  0  0  0  0
    0.1937   -3.2076   -0.0740 C   0  0  0  0  0  0  0  0  0  0  0  0
   -0.8799   -4.2799   -0.1248 C   0  0  0  0  0  0  0  0  0  0  0  0
   -5.5914    2.1268    0.1304 H   0  0  0  0  0  0  0  0  0  0  0  0
   -4.3659    2.4027    1.3616 H   0  0  0  0  0  0  0  0  0  0  0  0
   -5.9494    1.7471    1.8320 H   0  0  0  0  0  0  0  0  0  0  0  0
   -5.4827   -0.3360    0.5512 H   0  0  0  0  0  0  0  0  0  0  0  0
   -4.2379   -0.0981    1.7752 H   0  0  0  0  0  0  0  0  0  0  0  0
   -1.6964    1.4147   -1.6638 H   0  0  0  0  0  0  0  0  0  0  0  0
   -1.8395   -0.3313   -1.7173 H   0  0  0  0  0  0  0  0  0  0  0  0
   -0.4129    3.1029   -0.2356 H   0  0  0  0  0  0  0  0  0  0  0  0
    0.1064    2.9576   -1.9406 H   0  0  0  0  0  0  0  0  0  0  0  0
    1.2423    3.5110   -0.7023 H   0  0  0  0  0  0  0  0  0  0  0  0
    4.6682    1.4209   -0.6388 H   0  0  0  0  0  0  0  0  0  0  0  0
    4.2369    1.5671    1.0991 H   0  0  0  0  0  0  0  0  0  0  0  0
    6.4689   -0.1896   -0.0379 H   0  0  0  0  0  0  0  0  0  0  0  0
    6.0464   -0.0469    1.6645 H   0  0  0  0  0  0  0  0  0  0  0  0
    6.6972    1.3653    0.7981 H   0  0  0  0  0  0  0  0  0  0  0  0
    0.5711   -3.1284    0.9527 H   0  0  0  0  0  0  0  0  0  0  0  0
    1.0080   -3.4841   -0.7543 H   0  0  0  0  0  0  0  0  0  0  0  0
   -1.2874   -4.3698   -1.1372 H   0  0  0  0  0  0  0  0  0  0  0  0
   -0.4775   -5.2495    0.1816 H   0  0  0  0  0  0  0  0  0  0  0  0
   -1.7158   -4.0197    0.5332 H   0  0  0  0  0  0  0  0  0  0  0  0
  1  2  1  0
  2  3  1  0
  3  4  1  0
  4  5  2  0
  4  6  1  0
  6  7  1  0
  7  8  2  0
  8  9  1  0
  8 10  1  0
 10 11  2  0
 11 12  1  0
 12 13  1  0
 13 14  1  0
 11 15  1  0
 15 16  2  0
 16 17  1  0
 17 18  1  0
 18 19  1  0
 16  7  1  0
  1 20  1  0
  1 21  1  0
  1 22  1  0
  2 23  1  0
  2 24  1  0
  6 25  1  0
  6 26  1  0
  9 27  1  0
  9 28  1  0
  9 29  1  0
 13 30  1  0
 13 31  1  0
 14 32  1  0
 14 33  1  0
 14 34  1  0
 18 35  1  0
 18 36  1  0
 19 37  1  0
 19 38  1  0
 19 39  1  0
M  END
>  <Unnamed: 0>  (39) 
658

>  <ID>  (39) 
TRAIN_0658

>  <Canonical_Smiles>  (39) 
CCOC(=O)Cc1c(C)nc(OCC)nc1OCC

>  <Inhibition>  (39) 
4.03

>  <TDC_conf_true_inhibitor>  (39) 
0

>  <TDC_conf_non_inhibitor>  (39) 
1

>  <split>  (39) 
1

$$$$
39
     RDKit          3D

 24 25  0  0  0  0  0  0  0  0999 V2000
    3.6890   -1.9702   -0.8652 Cl  0  0  0  0  0  0  0  0  0  0  0  0
    2.6789   -1.1312    0.2593 C   0  0  0  0  0  0  0  0  0  0  0  0
    1.7157   -0.2603   -0.2569 C   0  0  0  0  0  0  0  0  0  0  0  0
    0.8677    0.4259    0.6137 C   0  0  0  0  0  0  0  0  0  0  0  0
   -0.0634    1.3176    0.1417 O   0  0  0  0  0  0  0  0  0  0  0  0
   -1.1434    0.7883   -0.5621 C   0  0  0  0  0  0  0  0  0  0  0  0
   -1.3458   -0.5548   -0.5547 N   0  0  0  0  0  0  0  0  0  0  0  0
   -2.4152   -1.0214   -1.2346 C   0  0  0  0  0  0  0  0  0  0  0  0
   -3.3015   -0.2089   -1.9216 C   0  0  0  0  0  0  0  0  0  0  0  0
   -3.0808    1.1664   -1.9105 C   0  0  0  0  0  0  0  0  0  0  0  0
   -1.9832    1.6830   -1.2165 C   0  0  0  0  0  0  0  0  0  0  0  0
   -1.7429    3.0907   -1.1897 C   0  0  0  0  0  0  0  0  0  0  0  0
   -1.5692    4.2382   -1.1830 N   0  0  0  0  0  0  0  0  0  0  0  0
    1.0027    0.2859    1.9935 C   0  0  0  0  0  0  0  0  0  0  0  0
    1.9669   -0.5825    2.5086 C   0  0  0  0  0  0  0  0  0  0  0  0
    2.8083   -1.3004    1.6442 C   0  0  0  0  0  0  0  0  0  0  0  0
    3.7830   -2.1859    2.2109 C   0  0  0  0  0  0  0  0  0  0  0  0
    4.5608   -2.8934    2.7025 N   0  0  0  0  0  0  0  0  0  0  0  0
    1.6165   -0.1237   -1.3302 H   0  0  0  0  0  0  0  0  0  0  0  0
   -2.5457   -2.1004   -1.2110 H   0  0  0  0  0  0  0  0  0  0  0  0
   -4.1462   -0.6366   -2.4519 H   0  0  0  0  0  0  0  0  0  0  0  0
   -3.7647    1.8266   -2.4401 H   0  0  0  0  0  0  0  0  0  0  0  0
    0.3544    0.8429    2.6655 H   0  0  0  0  0  0  0  0  0  0  0  0
    2.0582   -0.6959    3.5880 H   0  0  0  0  0  0  0  0  0  0  0  0
  1  2  1  0
  2  3  2  0
  3  4  1  0
  4  5  1  0
  5  6  1  0
  6  7  2  0
  7  8  1  0
  8  9  2  0
  9 10  1  0
 10 11  2  0
 11 12  1  0
 12 13  3  0
  4 14  2  0
 14 15  1  0
 15 16  2  0
 16 17  1  0
 17 18  3  0
 16  2  1  0
 11  6  1  0
  3 19  1  0
  8 20  1  0
  9 21  1  0
 10 22  1  0
 14 23  1  0
 15 24  1  0
M  END
>  <Unnamed: 0>  (40) 
235

>  <ID>  (40) 
TRAIN_0235

>  <Canonical_Smiles>  (40) 
Clc1cc(Oc2ncccc2C#N)ccc1C#N

>  <Inhibition>  (40) 
11.4

>  <TDC_conf_true_inhibitor>  (40) 
0

>  <TDC_conf_non_inhibitor>  (40) 
1

>  <split>  (40) 
1

$$$$
40
     RDKit          3D

 28 29  0  0  0  0  0  0  0  0999 V2000
   -1.8310   -1.5457    2.2134 N   0  0  0  0  0  0  0  0  0  0  0  0
   -2.2537   -0.9240    1.0253 C   0  0  0  0  0  0  0  0  0  0  0  0
   -3.1435   -1.5849    0.1741 C   0  0  0  0  0  0  0  0  0  0  0  0
   -3.4815   -1.0395   -1.0687 C   0  0  0  0  0  0  0  0  0  0  0  0
   -2.9067    0.1591   -1.4897 C   0  0  0  0  0  0  0  0  0  0  0  0
   -1.9763    0.8041   -0.6780 C   0  0  0  0  0  0  0  0  0  0  0  0
   -1.6290    0.2427    0.5553 C   0  0  0  0  0  0  0  0  0  0  0  0
   -0.7157    0.8763    1.3738 O   0  0  0  0  0  0  0  0  0  0  0  0
    0.5738    0.9638    0.8971 C   0  0  0  0  0  0  0  0  0  0  0  0
    1.2457    2.1650    1.1278 C   0  0  0  0  0  0  0  0  0  0  0  0
    2.5637    2.3149    0.6996 C   0  0  0  0  0  0  0  0  0  0  0  0
    3.2039    1.2578    0.0573 C   0  0  0  0  0  0  0  0  0  0  0  0
    4.4708    1.4229   -0.3453 F   0  0  0  0  0  0  0  0  0  0  0  0
    2.5569    0.0433   -0.1631 C   0  0  0  0  0  0  0  0  0  0  0  0
    1.2299   -0.1023    0.2706 C   0  0  0  0  0  0  0  0  0  0  0  0
    3.2964   -1.0659   -0.8454 C   0  0  0  0  0  0  0  0  0  0  0  0
    2.5448   -2.1925   -1.0090 F   0  0  0  0  0  0  0  0  0  0  0  0
    4.4040   -1.4645   -0.1609 F   0  0  0  0  0  0  0  0  0  0  0  0
    3.7212   -0.7296   -2.0949 F   0  0  0  0  0  0  0  0  0  0  0  0
   -1.4170   -0.8802    2.8629 H   0  0  0  0  0  0  0  0  0  0  0  0
   -2.5438   -2.1227    2.6476 H   0  0  0  0  0  0  0  0  0  0  0  0
   -3.5817   -2.5340    0.4714 H   0  0  0  0  0  0  0  0  0  0  0  0
   -4.1887   -1.5577   -1.7116 H   0  0  0  0  0  0  0  0  0  0  0  0
   -3.1748    0.5826   -2.4542 H   0  0  0  0  0  0  0  0  0  0  0  0
   -1.5210    1.7335   -1.0069 H   0  0  0  0  0  0  0  0  0  0  0  0
    0.7411    2.9830    1.6356 H   0  0  0  0  0  0  0  0  0  0  0  0
    3.0975    3.2459    0.8648 H   0  0  0  0  0  0  0  0  0  0  0  0
    0.7148   -1.0516    0.1286 H   0  0  0  0  0  0  0  0  0  0  0  0
  1  2  1  0
  2  3  2  0
  3  4  1  0
  4  5  2  0
  5  6  1  0
  6  7  2  0
  7  8  1  0
  8  9  1  0
  9 10  2  0
 10 11  1  0
 11 12  2  0
 12 13  1  0
 12 14  1  0
 14 15  2  0
 14 16  1  0
 16 17  1  0
 16 18  1  0
 16 19  1  0
  7  2  1  0
 15  9  1  0
  1 20  1  0
  1 21  1  0
  3 22  1  0
  4 23  1  0
  5 24  1  0
  6 25  1  0
 10 26  1  0
 11 27  1  0
 15 28  1  0
M  END
>  <Unnamed: 0>  (41) 
256

>  <ID>  (41) 
TRAIN_0256

>  <Canonical_Smiles>  (41) 
Nc1ccccc1Oc2ccc(F)c(c2)C(F)(F)F

>  <Inhibition>  (41) 
26.2

>  <TDC_conf_true_inhibitor>  (41) 
0

>  <TDC_conf_non_inhibitor>  (41) 
0

>  <split>  (41) 
1

$$$$
41
     RDKit          3D

 31 32  0  0  0  0  0  0  0  0999 V2000
    6.0113    1.1461    0.8534 O   0  0  0  0  0  1  0  0  0  0  0  0
    5.5235    0.7287   -0.2063 N   0  0  0  0  0  4  0  0  0  0  0  0
    6.1024    0.7394   -1.3013 O   0  0  0  0  0  0  0  0  0  0  0  0
    4.1605    0.1825   -0.1591 C   0  0  0  0  0  0  0  0  0  0  0  0
    3.4650    0.1511    1.0577 C   0  0  0  0  0  0  0  0  0  0  0  0
    2.1656   -0.3699    1.1045 C   0  0  0  0  0  0  0  0  0  0  0  0
    1.5583   -0.8558   -0.0617 C   0  0  0  0  0  0  0  0  0  0  0  0
    2.2681   -0.8254   -1.2732 C   0  0  0  0  0  0  0  0  0  0  0  0
    3.5657   -0.3064   -1.3277 C   0  0  0  0  0  0  0  0  0  0  0  0
    0.1777   -1.4250   -0.0680 C   0  0  0  0  0  0  0  0  0  0  0  0
   -0.1959   -2.0832   -1.0412 O   0  0  0  0  0  0  0  0  0  0  0  0
   -0.7215   -1.1953    1.1481 C   0  0  0  0  0  0  0  0  0  0  0  0
   -2.1295   -1.4793    0.8075 N   0  0  0  0  0  0  0  0  0  0  0  0
   -2.8327   -0.3521    0.3377 C   0  0  0  0  0  0  0  0  0  0  0  0
   -3.2226   -0.2682   -1.0043 C   0  0  0  0  0  0  0  0  0  0  0  0
   -3.8985    0.8584   -1.4812 C   0  0  0  0  0  0  0  0  0  0  0  0
   -4.1895    1.9075   -0.6128 C   0  0  0  0  0  0  0  0  0  0  0  0
   -5.1031    3.4325   -1.2546 Br  0  0  0  0  0  0  0  0  0  0  0  0
   -3.8122    1.8395    0.7260 C   0  0  0  0  0  0  0  0  0  0  0  0
   -3.1348    0.7116    1.1966 C   0  0  0  0  0  0  0  0  0  0  0  0
    3.9199    0.5233    1.9748 H   0  0  0  0  0  0  0  0  0  0  0  0
    1.6605   -0.3931    2.0667 H   0  0  0  0  0  0  0  0  0  0  0  0
    1.8106   -1.2064   -2.1864 H   0  0  0  0  0  0  0  0  0  0  0  0
    4.0912   -0.2935   -2.2810 H   0  0  0  0  0  0  0  0  0  0  0  0
   -0.4144   -1.9063    1.9225 H   0  0  0  0  0  0  0  0  0  0  0  0
   -0.5942   -0.1796    1.5360 H   0  0  0  0  0  0  0  0  0  0  0  0
   -2.1405   -2.2125    0.0904 H   0  0  0  0  0  0  0  0  0  0  0  0
   -2.9939   -1.0773   -1.6944 H   0  0  0  0  0  0  0  0  0  0  0  0
   -4.1904    0.9038   -2.5268 H   0  0  0  0  0  0  0  0  0  0  0  0
   -4.0446    2.6499    1.4111 H   0  0  0  0  0  0  0  0  0  0  0  0
   -2.8617    0.6549    2.2471 H   0  0  0  0  0  0  0  0  0  0  0  0
  1  2  1  0
  2  3  2  0
  2  4  1  0
  4  5  2  0
  5  6  1  0
  6  7  2  0
  7  8  1  0
  8  9  2  0
  7 10  1  0
 10 11  2  0
 10 12  1  0
 12 13  1  0
 13 14  1  0
 14 15  2  0
 15 16  1  0
 16 17  2  0
 17 18  1  0
 17 19  1  0
 19 20  2  0
  9  4  1  0
 20 14  1  0
  5 21  1  0
  6 22  1  0
  8 23  1  0
  9 24  1  0
 12 25  1  0
 12 26  1  0
 13 27  1  0
 15 28  1  0
 16 29  1  0
 19 30  1  0
 20 31  1  0
M  CHG  2   1  -1   2   1
M  END
>  <Unnamed: 0>  (42) 
277

>  <ID>  (42) 
TRAIN_0277

>  <Canonical_Smiles>  (42) 
[O-][N+](=O)c1ccc(cc1)C(=O)CNc2ccc(Br)cc2

>  <Inhibition>  (42) 
19.4

>  <TDC_conf_true_inhibitor>  (42) 
0

>  <TDC_conf_non_inhibitor>  (42) 
1

>  <split>  (42) 
1

$$$$
42
     RDKit          3D

 26 28  0  0  0  0  0  0  0  0999 V2000
    1.3457   -1.5485    4.2536 Cl  0  0  0  0  0  0  0  0  0  0  0  0
    1.2777   -0.9739    2.6483 C   0  0  0  0  0  0  0  0  0  0  0  0
    0.0618   -0.7593    2.1472 N   0  0  0  0  0  0  0  0  0  0  0  0
    0.0283   -0.3110    0.8751 C   0  0  0  0  0  0  0  0  0  0  0  0
   -1.3345   -0.1176    0.3545 C   0  0  0  0  0  0  0  0  0  0  0  0
   -1.8385   -0.9178   -0.6854 C   0  0  0  0  0  0  0  0  0  0  0  0
   -3.1320   -0.7240   -1.1764 C   0  0  0  0  0  0  0  0  0  0  0  0
   -3.9441    0.2667   -0.6291 C   0  0  0  0  0  0  0  0  0  0  0  0
   -3.4679    1.0590    0.4128 C   0  0  0  0  0  0  0  0  0  0  0  0
   -2.1744    0.8651    0.9035 C   0  0  0  0  0  0  0  0  0  0  0  0
    1.1899   -0.0536    0.1228 C   0  0  0  0  0  0  0  0  0  0  0  0
    1.2217    0.4575   -1.2013 C   0  0  0  0  0  0  0  0  0  0  0  0
    2.4361    0.6692   -1.8472 C   0  0  0  0  0  0  0  0  0  0  0  0
    2.4626    1.3449   -3.6102 Br  0  0  0  0  0  0  0  0  0  0  0  0
    3.6269    0.3853   -1.1950 C   0  0  0  0  0  0  0  0  0  0  0  0
    3.5929   -0.1073    0.1129 C   0  0  0  0  0  0  0  0  0  0  0  0
    2.3970   -0.3281    0.7854 C   0  0  0  0  0  0  0  0  0  0  0  0
    2.4507   -0.7885    2.0359 N   0  0  0  0  0  0  0  0  0  0  0  0
   -1.2257   -1.7081   -1.1148 H   0  0  0  0  0  0  0  0  0  0  0  0
   -3.5080   -1.3520   -1.9802 H   0  0  0  0  0  0  0  0  0  0  0  0
   -4.9524    0.4145   -1.0075 H   0  0  0  0  0  0  0  0  0  0  0  0
   -4.1046    1.8241    0.8500 H   0  0  0  0  0  0  0  0  0  0  0  0
   -1.8208    1.4840    1.7263 H   0  0  0  0  0  0  0  0  0  0  0  0
    0.2958    0.6966   -1.7201 H   0  0  0  0  0  0  0  0  0  0  0  0
    4.5849    0.5447   -1.6834 H   0  0  0  0  0  0  0  0  0  0  0  0
    4.5310   -0.3219    0.6224 H   0  0  0  0  0  0  0  0  0  0  0  0
  1  2  1  0
  2  3  2  0
  3  4  1  0
  4  5  1  0
  5  6  2  0
  6  7  1  0
  7  8  2  0
  8  9  1  0
  9 10  2  0
  4 11  2  0
 11 12  1  0
 12 13  2  0
 13 14  1  0
 13 15  1  0
 15 16  2  0
 16 17  1  0
 17 18  2  0
 18  2  1  0
 10  5  1  0
 17 11  1  0
  6 19  1  0
  7 20  1  0
  8 21  1  0
  9 22  1  0
 10 23  1  0
 12 24  1  0
 15 25  1  0
 16 26  1  0
M  END
>  <Unnamed: 0>  (43) 
283

>  <ID>  (43) 
TRAIN_0283

>  <Canonical_Smiles>  (43) 
Clc1nc(c2ccccc2)c3cc(Br)ccc3n1

>  <Inhibition>  (43) 
0.0

>  <TDC_conf_true_inhibitor>  (43) 
0

>  <TDC_conf_non_inhibitor>  (43) 
1

>  <split>  (43) 
1

$$$$
43
     RDKit          3D

 41 43  0  0  0  0  0  0  0  0999 V2000
    3.5127    1.3497   -0.5630 C   0  0  0  0  0  0  0  0  0  0  0  0
    3.1225   -0.0959   -0.2367 C   0  0  0  0  0  0  0  0  0  0  0  0
    3.1324   -0.9102   -1.5398 C   0  0  0  0  0  0  0  0  0  0  0  0
    4.0940   -0.7463    0.7537 C   0  0  0  0  0  0  0  0  0  0  0  0
    1.7517   -0.1816    0.2334 O   0  0  0  0  0  0  0  0  0  0  0  0
    1.3547    0.4335    1.3846 C   0  0  0  0  0  0  0  0  0  0  0  0
    2.1129    1.0873    2.0860 O   0  0  0  0  0  0  0  0  0  0  0  0
    0.0091    0.2521    1.6083 N   0  0  0  0  0  0  0  0  0  0  0  0
   -0.8804   -0.5181    0.7451 C   0  0  0  0  0  0  0  0  0  0  0  0
   -1.9335   -1.0665    1.7378 C   0  0  0  0  0  0  0  0  0  0  0  0
   -3.3754   -1.1484    1.2429 C   0  0  0  0  0  0  0  0  0  0  0  0
   -3.4439   -1.3295   -0.2672 C   0  0  0  0  0  0  0  0  0  0  0  0
   -2.7368   -0.1745   -0.9275 C   0  0  0  0  0  0  0  0  0  0  0  0
   -3.2984    0.4536   -2.0463 C   0  0  0  0  0  0  0  0  0  0  0  0
   -2.6514    1.5331   -2.6419 C   0  0  0  0  0  0  0  0  0  0  0  0
   -1.4396    1.9848   -2.1285 C   0  0  0  0  0  0  0  0  0  0  0  0
   -0.8647    1.3535   -1.0233 C   0  0  0  0  0  0  0  0  0  0  0  0
   -1.5015    0.2670   -0.4053 C   0  0  0  0  0  0  0  0  0  0  0  0
   -1.8088   -0.1944    2.8775 N   0  0  0  0  0  0  0  0  0  0  0  0
   -0.5754    0.4478    2.8612 C   0  0  0  0  0  0  0  0  0  0  0  0
   -0.1503    1.0487    3.8326 O   0  0  0  0  0  0  0  0  0  0  0  0
    4.4809    1.3950   -1.0732 H   0  0  0  0  0  0  0  0  0  0  0  0
    3.5892    1.9672    0.3368 H   0  0  0  0  0  0  0  0  0  0  0  0
    2.7591    1.8208   -1.2040 H   0  0  0  0  0  0  0  0  0  0  0  0
    2.4182   -0.4977   -2.2622 H   0  0  0  0  0  0  0  0  0  0  0  0
    2.8211   -1.9450   -1.3549 H   0  0  0  0  0  0  0  0  0  0  0  0
    4.1243   -0.9249   -2.0036 H   0  0  0  0  0  0  0  0  0  0  0  0
    3.7462   -1.7452    1.0400 H   0  0  0  0  0  0  0  0  0  0  0  0
    4.1844   -0.1687    1.6784 H   0  0  0  0  0  0  0  0  0  0  0  0
    5.0981   -0.8364    0.3255 H   0  0  0  0  0  0  0  0  0  0  0  0
   -0.3338   -1.3594    0.2994 H   0  0  0  0  0  0  0  0  0  0  0  0
   -1.6065   -2.0575    2.0805 H   0  0  0  0  0  0  0  0  0  0  0  0
   -3.8913   -1.9755    1.7453 H   0  0  0  0  0  0  0  0  0  0  0  0
   -3.9240   -0.2376    1.5212 H   0  0  0  0  0  0  0  0  0  0  0  0
   -4.4946   -1.3696   -0.5766 H   0  0  0  0  0  0  0  0  0  0  0  0
   -2.9708   -2.2699   -0.5734 H   0  0  0  0  0  0  0  0  0  0  0  0
   -4.2473    0.1129   -2.4544 H   0  0  0  0  0  0  0  0  0  0  0  0
   -3.0933    2.0247   -3.5046 H   0  0  0  0  0  0  0  0  0  0  0  0
   -0.9350    2.8292   -2.5918 H   0  0  0  0  0  0  0  0  0  0  0  0
    0.0874    1.7319   -0.6625 H   0  0  0  0  0  0  0  0  0  0  0  0
   -2.2423   -0.3400    3.7812 H   0  0  0  0  0  0  0  0  0  0  0  0
  1  2  1  0
  2  3  1  0
  2  4  1  0
  2  5  1  0
  5  6  1  0
  6  7  2  0
  6  8  1  0
  8  9  1  0
  9 10  1  0
 10 11  1  0
 11 12  1  0
 12 13  1  0
 13 14  2  0
 14 15  1  0
 15 16  2  0
 16 17  1  0
 17 18  2  0
 10 19  1  0
 19 20  1  0
 20 21  2  0
 20  8  1  0
 18  9  1  0
 18 13  1  0
  1 22  1  0
  1 23  1  0
  1 24  1  0
  3 25  1  0
  3 26  1  0
  3 27  1  0
  4 28  1  0
  4 29  1  0
  4 30  1  0
  9 31  1  0
 10 32  1  0
 11 33  1  0
 11 34  1  0
 12 35  1  0
 12 36  1  0
 14 37  1  0
 15 38  1  0
 16 39  1  0
 17 40  1  0
 19 41  1  0
M  END
>  <Unnamed: 0>  (44) 
287

>  <ID>  (44) 
TRAIN_0287

>  <Canonical_Smiles>  (44) 
CC(C)(C)OC(=O)N1C2C(CCc3ccccc23)NC1=O

>  <Inhibition>  (44) 
0.0

>  <TDC_conf_true_inhibitor>  (44) 
0

>  <TDC_conf_non_inhibitor>  (44) 
1

>  <split>  (44) 
1

$$$$
44
     RDKit          3D

 28 29  0  0  0  0  0  0  0  0999 V2000
   -1.9385    2.7559   -0.1619 N   0  0  0  0  0  0  0  0  0  0  0  0
   -2.1041    1.3859   -0.1476 C   0  0  0  0  0  0  0  0  0  0  0  0
   -3.3096    0.9157    0.1455 N   0  0  0  0  0  0  0  0  0  0  0  0
   -3.4040   -0.4221    0.1774 C   0  0  0  0  0  0  0  0  0  0  0  0
   -5.0060   -0.9841    0.4872 Cl  0  0  0  0  0  0  0  0  0  0  0  0
   -2.3627   -1.3172   -0.0216 C   0  0  0  0  0  0  0  0  0  0  0  0
   -2.5402   -2.7233   -0.1625 N   0  0  0  0  0  0  0  0  0  0  0  0
   -1.1569   -0.6991   -0.3532 C   0  0  0  0  0  0  0  0  0  0  0  0
   -0.0260   -1.5221   -0.5434 N   0  0  0  0  0  0  0  0  0  0  0  0
    1.1315   -0.9030   -1.1704 C   0  0  0  0  0  0  0  0  0  0  0  0
    1.9962   -0.1679   -0.1818 C   0  0  0  0  0  0  0  0  0  0  0  0
    2.4385    1.1358   -0.4272 C   0  0  0  0  0  0  0  0  0  0  0  0
    3.2708    1.7695    0.4914 C   0  0  0  0  0  0  0  0  0  0  0  0
    3.6439    1.0726    1.6285 C   0  0  0  0  0  0  0  0  0  0  0  0
    3.2455   -0.1872    1.9010 N   0  0  0  0  0  0  0  0  0  0  0  0
    2.4275   -0.7738    0.9944 C   0  0  0  0  0  0  0  0  0  0  0  0
   -1.0275    0.6390   -0.3992 N   0  0  0  0  0  0  0  0  0  0  0  0
   -0.9744    2.9756    0.0508 H   0  0  0  0  0  0  0  0  0  0  0  0
   -2.6433    3.1898    0.4187 H   0  0  0  0  0  0  0  0  0  0  0  0
   -3.3365   -3.0313    0.3987 H   0  0  0  0  0  0  0  0  0  0  0  0
   -2.7387   -2.9517   -1.1360 H   0  0  0  0  0  0  0  0  0  0  0  0
   -0.3262   -2.3846   -0.9894 H   0  0  0  0  0  0  0  0  0  0  0  0
    1.7477   -1.6969   -1.6115 H   0  0  0  0  0  0  0  0  0  0  0  0
    0.8345   -0.2595   -2.0087 H   0  0  0  0  0  0  0  0  0  0  0  0
    2.1298    1.6626   -1.3263 H   0  0  0  0  0  0  0  0  0  0  0  0
    3.6207    2.7815    0.3240 H   0  0  0  0  0  0  0  0  0  0  0  0
    4.2929    1.5234    2.3735 H   0  0  0  0  0  0  0  0  0  0  0  0
    2.1153   -1.7835    1.2495 H   0  0  0  0  0  0  0  0  0  0  0  0
  1  2  1  0
  2  3  2  0
  3  4  1  0
  4  5  1  0
  4  6  2  0
  6  7  1  0
  6  8  1  0
  8  9  1  0
  9 10  1  0
 10 11  1  0
 11 12  2  0
 12 13  1  0
 13 14  2  0
 14 15  1  0
 15 16  2  0
  8 17  2  0
 17  2  1  0
 16 11  1  0
  1 18  1  0
  1 19  1  0
  7 20  1  0
  7 21  1  0
  9 22  1  0
 10 23  1  0
 10 24  1  0
 12 25  1  0
 13 26  1  0
 14 27  1  0
 16 28  1  0
M  END
>  <Unnamed: 0>  (45) 
291

>  <ID>  (45) 
TRAIN_0291

>  <Canonical_Smiles>  (45) 
Nc1nc(Cl)c(N)c(NCc2cccnc2)n1

>  <Inhibition>  (45) 
16.5

>  <TDC_conf_true_inhibitor>  (45) 
0

>  <TDC_conf_non_inhibitor>  (45) 
1

>  <split>  (45) 
1

$$$$
45
     RDKit          3D

 46 48  0  0  0  0  0  0  0  0999 V2000
   -1.6797    2.0175   -2.3895 C   0  0  0  0  0  0  0  0  0  0  0  0
   -2.7825    1.0651   -2.4643 N   0  0  0  0  0  0  0  0  0  0  0  0
   -2.9629    0.6180   -3.8473 C   0  0  0  0  0  0  0  0  0  0  0  0
   -2.7133   -0.0797   -1.5180 C   0  0  0  0  0  0  0  0  0  0  0  0
   -1.3454   -0.8083   -1.4314 C   0  0  0  0  0  0  0  0  0  0  0  0
   -0.3250   -0.2407   -0.4429 C   0  0  0  0  0  0  0  0  0  0  0  0
    0.8671   -1.0263   -0.5644 O   0  0  0  0  0  0  0  0  0  0  0  0
    1.9213   -0.6865    0.2390 C   0  0  0  0  0  0  0  0  0  0  0  0
    1.9290    0.3239    1.1978 C   0  0  0  0  0  0  0  0  0  0  0  0
    3.0811    0.5654    1.9544 C   0  0  0  0  0  0  0  0  0  0  0  0
    4.2423   -0.1993    1.7649 C   0  0  0  0  0  0  0  0  0  0  0  0
    5.4057    0.0321    2.5169 C   0  0  0  0  0  0  0  0  0  0  0  0
    6.5509   -0.7397    2.3141 C   0  0  0  0  0  0  0  0  0  0  0  0
    6.5475   -1.7514    1.3584 C   0  0  0  0  0  0  0  0  0  0  0  0
    5.3988   -1.9935    0.6033 C   0  0  0  0  0  0  0  0  0  0  0  0
    4.2385   -1.2257    0.7951 C   0  0  0  0  0  0  0  0  0  0  0  0
    3.0732   -1.4548    0.0447 C   0  0  0  0  0  0  0  0  0  0  0  0
   -3.3412    0.2086   -0.1456 C   0  0  0  0  0  0  0  0  0  0  0  0
   -3.4907   -0.8402    0.7832 C   0  0  0  0  0  0  0  0  0  0  0  0
   -4.0631   -0.6217    2.0389 C   0  0  0  0  0  0  0  0  0  0  0  0
   -4.5142    0.6472    2.3872 C   0  0  0  0  0  0  0  0  0  0  0  0
   -4.4024    1.6931    1.4762 C   0  0  0  0  0  0  0  0  0  0  0  0
   -3.8285    1.4738    0.2203 C   0  0  0  0  0  0  0  0  0  0  0  0
   -1.5351    2.3894   -1.3706 H   0  0  0  0  0  0  0  0  0  0  0  0
   -1.9039    2.8995   -3.0009 H   0  0  0  0  0  0  0  0  0  0  0  0
   -0.7353    1.5980   -2.7521 H   0  0  0  0  0  0  0  0  0  0  0  0
   -2.1070    0.0418   -4.2147 H   0  0  0  0  0  0  0  0  0  0  0  0
   -3.8638    0.0020   -3.9445 H   0  0  0  0  0  0  0  0  0  0  0  0
   -3.1077    1.4763   -4.5135 H   0  0  0  0  0  0  0  0  0  0  0  0
   -3.4086   -0.8287   -1.9289 H   0  0  0  0  0  0  0  0  0  0  0  0
   -0.8877   -0.8767   -2.4269 H   0  0  0  0  0  0  0  0  0  0  0  0
   -1.5203   -1.8589   -1.1588 H   0  0  0  0  0  0  0  0  0  0  0  0
   -0.0908    0.8013   -0.6703 H   0  0  0  0  0  0  0  0  0  0  0  0
   -0.7049   -0.3215    0.5806 H   0  0  0  0  0  0  0  0  0  0  0  0
    1.0579    0.9421    1.3876 H   0  0  0  0  0  0  0  0  0  0  0  0
    3.0629    1.3592    2.6980 H   0  0  0  0  0  0  0  0  0  0  0  0
    5.4273    0.8179    3.2685 H   0  0  0  0  0  0  0  0  0  0  0  0
    7.4445   -0.5503    2.9030 H   0  0  0  0  0  0  0  0  0  0  0  0
    7.4382   -2.3535    1.1994 H   0  0  0  0  0  0  0  0  0  0  0  0
    5.4144   -2.7885   -0.1390 H   0  0  0  0  0  0  0  0  0  0  0  0
    3.0548   -2.2422   -0.7056 H   0  0  0  0  0  0  0  0  0  0  0  0
   -3.1633   -1.8476    0.5344 H   0  0  0  0  0  0  0  0  0  0  0  0
   -4.1618   -1.4454    2.7411 H   0  0  0  0  0  0  0  0  0  0  0  0
   -4.9637    0.8185    3.3614 H   0  0  0  0  0  0  0  0  0  0  0  0
   -4.7704    2.6823    1.7359 H   0  0  0  0  0  0  0  0  0  0  0  0
   -3.7823    2.3083   -0.4749 H   0  0  0  0  0  0  0  0  0  0  0  0
  1  2  1  0
  2  3  1  0
  2  4  1  0
  4  5  1  0
  5  6  1  0
  6  7  1  0
  7  8  1  0
  8  9  2  0
  9 10  1  0
 10 11  2  0
 11 12  1  0
 12 13  2  0
 13 14  1  0
 14 15  2  0
 15 16  1  0
 16 17  2  0
  4 18  1  0
 18 19  2  0
 19 20  1  0
 20 21  2  0
 21 22  1  0
 22 23  2  0
 17  8  1  0
 16 11  1  0
 23 18  1  0
  1 24  1  0
  1 25  1  0
  1 26  1  0
  3 27  1  0
  3 28  1  0
  3 29  1  0
  4 30  1  0
  5 31  1  0
  5 32  1  0
  6 33  1  0
  6 34  1  0
  9 35  1  0
 10 36  1  0
 12 37  1  0
 13 38  1  0
 14 39  1  0
 15 40  1  0
 17 41  1  0
 19 42  1  0
 20 43  1  0
 21 44  1  0
 22 45  1  0
 23 46  1  0
M  END
>  <Unnamed: 0>  (46) 
295

>  <ID>  (46) 
TRAIN_0295

>  <Canonical_Smiles>  (46) 
CN(C)C(CCOc1ccc2ccccc2c1)c3ccccc3

>  <Inhibition>  (46) 
0.0

>  <TDC_conf_true_inhibitor>  (46) 
0

>  <TDC_conf_non_inhibitor>  (46) 
1

>  <split>  (46) 
1

$$$$
46
     RDKit          3D

 34 36  0  0  0  0  0  0  0  0999 V2000
   -6.9207   -0.1864   -1.4043 F   0  0  0  0  0  0  0  0  0  0  0  0
   -5.6560   -0.2868   -0.9755 C   0  0  0  0  0  0  0  0  0  0  0  0
   -5.2418   -1.4425   -0.3279 C   0  0  0  0  0  0  0  0  0  0  0  0
   -3.9218   -1.5450    0.1179 C   0  0  0  0  0  0  0  0  0  0  0  0
   -3.0169   -0.4915   -0.0813 C   0  0  0  0  0  0  0  0  0  0  0  0
   -1.7056   -0.6784    0.3935 N   0  0  0  0  0  0  0  0  0  0  0  0
   -0.6649    0.2303    0.4099 C   0  0  0  0  0  0  0  0  0  0  0  0
   -0.7280    1.4031    0.0515 O   0  0  0  0  0  0  0  0  0  0  0  0
    0.5120   -0.3019    0.9122 N   0  0  0  0  0  0  0  0  0  0  0  0
    1.7261    0.4850    1.2433 C   0  0  0  0  0  0  0  0  0  0  0  0
    1.9481   -0.5117    2.4121 C   0  0  0  0  0  0  0  0  0  0  0  0
    0.5916   -1.0919    2.0201 C   0  0  0  0  0  0  0  0  0  0  0  0
   -0.1435   -1.9628    2.4281 O   0  0  0  0  0  0  0  0  0  0  0  0
    2.8435    0.5865    0.1162 C   0  0  0  0  0  0  0  0  0  0  0  0
    2.5213    0.7662   -1.2451 C   0  0  0  0  0  0  0  0  0  0  0  0
    3.5018    0.8621   -2.2375 C   0  0  0  0  0  0  0  0  0  0  0  0
    4.8467    0.7886   -1.8957 C   0  0  0  0  0  0  0  0  0  0  0  0
    5.2076    0.6267   -0.5635 C   0  0  0  0  0  0  0  0  0  0  0  0
    4.2200    0.5323    0.4224 C   0  0  0  0  0  0  0  0  0  0  0  0
   -3.4527    0.6627   -0.7390 C   0  0  0  0  0  0  0  0  0  0  0  0
   -4.7743    0.7650   -1.1853 C   0  0  0  0  0  0  0  0  0  0  0  0
   -5.9450   -2.2543   -0.1733 H   0  0  0  0  0  0  0  0  0  0  0  0
   -3.6119   -2.4557    0.6252 H   0  0  0  0  0  0  0  0  0  0  0  0
   -1.5132   -1.5587    0.8645 H   0  0  0  0  0  0  0  0  0  0  0  0
    1.4552    1.4858    1.6120 H   0  0  0  0  0  0  0  0  0  0  0  0
    1.9705   -0.0621    3.4078 H   0  0  0  0  0  0  0  0  0  0  0  0
    2.7641   -1.2314    2.3038 H   0  0  0  0  0  0  0  0  0  0  0  0
    1.4765    0.8446   -1.5442 H   0  0  0  0  0  0  0  0  0  0  0  0
    3.2093    1.0002   -3.2754 H   0  0  0  0  0  0  0  0  0  0  0  0
    5.6106    0.8651   -2.6647 H   0  0  0  0  0  0  0  0  0  0  0  0
    6.2579    0.5779   -0.2875 H   0  0  0  0  0  0  0  0  0  0  0  0
    4.5373    0.4178    1.4575 H   0  0  0  0  0  0  0  0  0  0  0  0
   -2.7885    1.5008   -0.9248 H   0  0  0  0  0  0  0  0  0  0  0  0
   -5.1154    1.6604   -1.6953 H   0  0  0  0  0  0  0  0  0  0  0  0
  1  2  1  0
  2  3  2  0
  3  4  1  0
  4  5  2  0
  5  6  1  0
  6  7  1  0
  7  8  2  0
  7  9  1  0
  9 10  1  0
 10 11  1  0
 11 12  1  0
 12 13  2  0
 10 14  1  0
 14 15  2  0
 15 16  1  0
 16 17  2  0
 17 18  1  0
 18 19  2  0
  5 20  1  0
 20 21  2  0
 21  2  1  0
 12  9  1  0
 19 14  1  0
  3 22  1  0
  4 23  1  0
  6 24  1  0
 10 25  1  0
 11 26  1  0
 11 27  1  0
 15 28  1  0
 16 29  1  0
 17 30  1  0
 18 31  1  0
 19 32  1  0
 20 33  1  0
 21 34  1  0
M  END
>  <Unnamed: 0>  (47) 
296

>  <ID>  (47) 
TRAIN_0296

>  <Canonical_Smiles>  (47) 
Fc1ccc(NC(=O)N2C(CC2=O)c3ccccc3)cc1

>  <Inhibition>  (47) 
0.0

>  <TDC_conf_true_inhibitor>  (47) 
0

>  <TDC_conf_non_inhibitor>  (47) 
1

>  <split>  (47) 
1

$$$$
47
     RDKit          3D

 21 23  0  0  0  0  0  0  0  0999 V2000
   -4.4739   -0.0786    0.2843 F   0  0  0  0  0  0  0  0  0  0  0  0
   -3.1428   -0.2066    0.2075 C   0  0  0  0  0  0  0  0  0  0  0  0
   -2.5786   -1.4824    0.2377 C   0  0  0  0  0  0  0  0  0  0  0  0
   -1.1934   -1.6327    0.1586 C   0  0  0  0  0  0  0  0  0  0  0  0
   -0.3943   -0.4958    0.0502 C   0  0  0  0  0  0  0  0  0  0  0  0
   -0.9745    0.7946    0.0203 C   0  0  0  0  0  0  0  0  0  0  0  0
   -0.1476    1.9446   -0.0906 N   0  0  0  0  0  0  0  0  0  0  0  0
    1.2413    1.9216   -0.1764 C   0  0  0  0  0  0  0  0  0  0  0  0
    1.8967    2.9534   -0.2704 O   0  0  0  0  0  0  0  0  0  0  0  0
    1.8399    0.6045   -0.1463 C   0  0  0  0  0  0  0  0  0  0  0  0
    3.1662    0.1184   -0.2045 C   0  0  0  0  0  0  0  0  0  0  0  0
    3.0691   -1.2585   -0.1277 C   0  0  0  0  0  0  0  0  0  0  0  0
    4.5426   -2.4623   -0.1582 Br  0  0  0  0  0  0  0  0  0  0  0  0
    1.7624   -1.6494   -0.0257 O   0  0  0  0  0  0  0  0  0  0  0  0
    1.0426   -0.5068   -0.0393 C   0  0  0  0  0  0  0  0  0  0  0  0
   -2.3560    0.9376    0.0995 C   0  0  0  0  0  0  0  0  0  0  0  0
   -3.2247   -2.3513    0.3227 H   0  0  0  0  0  0  0  0  0  0  0  0
   -0.7489   -2.6245    0.1817 H   0  0  0  0  0  0  0  0  0  0  0  0
   -0.5654    2.8657   -0.1117 H   0  0  0  0  0  0  0  0  0  0  0  0
    4.0745    0.6985   -0.2911 H   0  0  0  0  0  0  0  0  0  0  0  0
   -2.8353    1.9099    0.0796 H   0  0  0  0  0  0  0  0  0  0  0  0
  1  2  1  0
  2  3  2  0
  3  4  1  0
  4  5  2  0
  5  6  1  0
  6  7  1  0
  7  8  1  0
  8  9  2  0
  8 10  1  0
 10 11  1  0
 11 12  2  0
 12 13  1  0
 12 14  1  0
 14 15  1  0
  6 16  2  0
 16  2  1  0
 15  5  1  0
 15 10  2  0
  3 17  1  0
  4 18  1  0
  7 19  1  0
 11 20  1  0
 16 21  1  0
M  END
>  <Unnamed: 0>  (48) 
320

>  <ID>  (48) 
TRAIN_0320

>  <Canonical_Smiles>  (48) 
Fc1ccc2c(NC(=O)c3cc(Br)oc23)c1

>  <Inhibition>  (48) 
0.0

>  <TDC_conf_true_inhibitor>  (48) 
0

>  <TDC_conf_non_inhibitor>  (48) 
1

>  <split>  (48) 
1

$$$$
48
     RDKit          3D

 45 48  0  0  0  0  0  0  0  0999 V2000
    7.5651   -1.2996    2.1297 C   0  0  0  0  0  0  0  0  0  0  0  0
    6.6832   -0.3607    2.7317 O   0  0  0  0  0  0  0  0  0  0  0  0
    5.4565   -0.2054    2.1464 C   0  0  0  0  0  0  0  0  0  0  0  0
    4.6097    0.6963    2.7950 C   0  0  0  0  0  0  0  0  0  0  0  0
    3.3261    0.9505    2.3054 C   0  0  0  0  0  0  0  0  0  0  0  0
    2.8720    0.3081    1.1477 C   0  0  0  0  0  0  0  0  0  0  0  0
    1.4866    0.5677    0.6126 C   0  0  0  0  0  0  0  0  0  0  0  0
    0.3049   -0.6879    1.1754 S   0  0  0  0  0  0  0  0  0  0  0  0
   -1.0467   -0.2871    0.1513 C   0  0  0  0  0  0  0  0  0  0  0  0
   -2.0435    0.4420    0.6406 N   0  0  0  0  0  0  0  0  0  0  0  0
   -2.9865    0.4578   -0.3389 N   0  0  0  0  0  0  0  0  0  0  0  0
   -2.4754   -0.0665   -1.5280 C   0  0  0  0  0  0  0  0  0  0  0  0
   -3.1237    0.0422   -2.8612 C   0  0  0  0  0  0  0  0  0  0  0  0
   -1.2519   -0.6287   -1.1917 C   0  0  0  0  0  0  0  0  0  0  0  0
   -0.3150   -1.4260   -2.1457 C   0  0  0  0  0  0  0  0  0  0  0  0
   -0.6242   -1.7304   -3.4534 O   0  0  0  0  0  0  0  0  0  0  0  0
    0.4838   -2.4052   -3.8571 C   0  0  0  0  0  0  0  0  0  0  0  0
    1.3974   -2.5153   -2.9257 N   0  0  0  0  0  0  0  0  0  0  0  0
    0.8781   -1.8859   -1.8147 N   0  0  0  0  0  0  0  0  0  0  0  0
   -4.2826    0.9774   -0.0304 C   0  0  0  0  0  0  0  0  0  0  0  0
   -5.4076    0.7080   -0.8190 C   0  0  0  0  0  0  0  0  0  0  0  0
   -6.6571    1.2344   -0.4715 C   0  0  0  0  0  0  0  0  0  0  0  0
   -6.7977    2.0210    0.6694 C   0  0  0  0  0  0  0  0  0  0  0  0
   -5.6923    2.2742    1.4756 C   0  0  0  0  0  0  0  0  0  0  0  0
   -4.4433    1.7501    1.1337 C   0  0  0  0  0  0  0  0  0  0  0  0
    3.7223   -0.6021    0.5032 C   0  0  0  0  0  0  0  0  0  0  0  0
    5.0065   -0.8557    0.9978 C   0  0  0  0  0  0  0  0  0  0  0  0
    7.8281   -0.9968    1.1108 H   0  0  0  0  0  0  0  0  0  0  0  0
    8.4869   -1.3176    2.7192 H   0  0  0  0  0  0  0  0  0  0  0  0
    7.1400   -2.3086    2.1461 H   0  0  0  0  0  0  0  0  0  0  0  0
    4.9513    1.2016    3.6950 H   0  0  0  0  0  0  0  0  0  0  0  0
    2.6842    1.6486    2.8378 H   0  0  0  0  0  0  0  0  0  0  0  0
    1.1383    1.5563    0.9335 H   0  0  0  0  0  0  0  0  0  0  0  0
    1.5280    0.5927   -0.4824 H   0  0  0  0  0  0  0  0  0  0  0  0
   -2.3758    0.0791   -3.6593 H   0  0  0  0  0  0  0  0  0  0  0  0
   -3.7022    0.9654   -2.9601 H   0  0  0  0  0  0  0  0  0  0  0  0
   -3.7703   -0.8198   -3.0497 H   0  0  0  0  0  0  0  0  0  0  0  0
    0.5035   -2.7706   -4.8724 H   0  0  0  0  0  0  0  0  0  0  0  0
   -5.3705    0.0560   -1.6829 H   0  0  0  0  0  0  0  0  0  0  0  0
   -7.5272    1.0163   -1.0864 H   0  0  0  0  0  0  0  0  0  0  0  0
   -7.7707    2.4245    0.9378 H   0  0  0  0  0  0  0  0  0  0  0  0
   -5.7984    2.8761    2.3747 H   0  0  0  0  0  0  0  0  0  0  0  0
   -3.5971    1.9635    1.7856 H   0  0  0  0  0  0  0  0  0  0  0  0
    3.3836   -1.1293   -0.3884 H   0  0  0  0  0  0  0  0  0  0  0  0
    5.6236   -1.5694    0.4630 H   0  0  0  0  0  0  0  0  0  0  0  0
  1  2  1  0
  2  3  1  0
  3  4  2  0
  4  5  1  0
  5  6  2  0
  6  7  1  0
  7  8  1  0
  8  9  1  0
  9 10  2  0
 10 11  1  0
 11 12  1  0
 12 13  1  0
 12 14  2  0
 14 15  1  0
 15 16  1  0
 16 17  1  0
 17 18  2  0
 18 19  1  0
 11 20  1  0
 20 21  2  0
 21 22  1  0
 22 23  2  0
 23 24  1  0
 24 25  2  0
  6 26  1  0
 26 27  2  0
 27  3  1  0
 14  9  1  0
 19 15  2  0
 25 20  1  0
  1 28  1  0
  1 29  1  0
  1 30  1  0
  4 31  1  0
  5 32  1  0
  7 33  1  0
  7 34  1  0
 13 35  1  0
 13 36  1  0
 13 37  1  0
 17 38  1  0
 21 39  1  0
 22 40  1  0
 23 41  1  0
 24 42  1  0
 25 43  1  0
 26 44  1  0
 27 45  1  0
M  END
>  <Unnamed: 0>  (49) 
347

>  <ID>  (49) 
TRAIN_0347

>  <Canonical_Smiles>  (49) 
COc1ccc(CSc2nn(c(C)c2c3ocnn3)c4ccccc4)cc1

>  <Inhibition>  (49) 
57.9

>  <TDC_conf_true_inhibitor>  (49) 
1

>  <TDC_conf_non_inhibitor>  (49) 
0

>  <split>  (49) 
1

$$$$
49
     RDKit          3D

 25 26  0  0  0  0  0  0  0  0999 V2000
    5.4428   -0.9041    0.5224 Br  0  0  0  0  0  0  0  0  0  0  0  0
    3.6132   -0.5614    0.1947 C   0  0  0  0  0  0  0  0  0  0  0  0
    2.6907   -0.6812    1.2308 C   0  0  0  0  0  0  0  0  0  0  0  0
    1.3379   -0.4278    0.9887 C   0  0  0  0  0  0  0  0  0  0  0  0
    0.8943   -0.0576   -0.2931 C   0  0  0  0  0  0  0  0  0  0  0  0
    1.8434    0.0648   -1.3214 C   0  0  0  0  0  0  0  0  0  0  0  0
    3.1964   -0.1880   -1.0799 C   0  0  0  0  0  0  0  0  0  0  0  0
   -0.5706    0.2272   -0.5775 C   0  0  0  0  0  0  0  0  0  0  0  0
   -1.4592   -1.0084   -0.3418 C   0  0  0  0  0  0  0  0  0  0  0  0
   -2.8815   -0.6603    0.0875 C   0  0  0  0  0  0  0  0  0  0  0  0
   -3.3474    0.5015   -0.5674 O   0  0  0  0  0  0  0  0  0  0  0  0
   -2.5781    1.8941   -0.2402 S   0  0  0  0  0  6  0  0  0  0  0  0
   -3.1595    2.4760    0.9460 O   0  0  0  0  0  0  0  0  0  0  0  0
   -2.4373    2.6243   -1.4768 O   0  0  0  0  0  0  0  0  0  0  0  0
   -1.0522    1.3640    0.2125 N   0  0  0  0  0  0  0  0  0  0  0  0
    3.0139   -0.9668    2.2286 H   0  0  0  0  0  0  0  0  0  0  0  0
    0.6358   -0.5215    1.8138 H   0  0  0  0  0  0  0  0  0  0  0  0
    1.5387    0.3668   -2.3222 H   0  0  0  0  0  0  0  0  0  0  0  0
    3.9138   -0.0854   -1.8902 H   0  0  0  0  0  0  0  0  0  0  0  0
   -0.6556    0.5057   -1.6374 H   0  0  0  0  0  0  0  0  0  0  0  0
   -1.4955   -1.5753   -1.2818 H   0  0  0  0  0  0  0  0  0  0  0  0
   -1.0385   -1.7000    0.3975 H   0  0  0  0  0  0  0  0  0  0  0  0
   -3.5570   -1.4883   -0.1505 H   0  0  0  0  0  0  0  0  0  0  0  0
   -2.9329   -0.5087    1.1727 H   0  0  0  0  0  0  0  0  0  0  0  0
   -0.9556    1.3103    1.2233 H   0  0  0  0  0  0  0  0  0  0  0  0
  1  2  1  0
  2  3  2  0
  3  4  1  0
  4  5  2  0
  5  6  1  0
  6  7  2  0
  5  8  1  0
  8  9  1  0
  9 10  1  0
 10 11  1  0
 11 12  1  0
 12 13  2  0
 12 14  2  0
 12 15  1  0
  7  2  1  0
 15  8  1  0
  3 16  1  0
  4 17  1  0
  6 18  1  0
  7 19  1  0
  8 20  1  0
  9 21  1  0
  9 22  1  0
 10 23  1  0
 10 24  1  0
 15 25  1  0
M  END
>  <Unnamed: 0>  (50) 
359

>  <ID>  (50) 
TRAIN_0359

>  <Canonical_Smiles>  (50) 
Brc1ccc(cc1)C2CCOS(=O)(=O)N2

>  <Inhibition>  (50) 
10.4

>  <TDC_conf_true_inhibitor>  (50) 
0

>  <TDC_conf_non_inhibitor>  (50) 
1

>  <split>  (50) 
1

$$$$
50
     RDKit          3D

 34 37  0  0  0  0  0  0  0  0999 V2000
    0.9798    1.5750    1.0783 N   0  0  0  0  0  0  0  0  0  0  0  0
    1.1505    0.6061    0.1083 C   0  0  0  0  0  0  0  0  0  0  0  0
    0.1691    0.3158   -0.7693 C   0  0  0  0  0  0  0  0  0  0  0  0
   -1.1779    1.0268   -0.7055 C   0  0  0  0  0  0  0  0  0  0  0  0
   -2.3158    0.0352   -0.5114 C   0  0  0  0  0  0  0  0  0  0  0  0
   -3.2957   -0.1121   -1.5071 C   0  0  0  0  0  0  0  0  0  0  0  0
   -4.3383   -1.0270   -1.3487 C   0  0  0  0  0  0  0  0  0  0  0  0
   -4.4156   -1.8065   -0.1968 C   0  0  0  0  0  0  0  0  0  0  0  0
   -3.4519   -1.6729    0.7999 C   0  0  0  0  0  0  0  0  0  0  0  0
   -2.4077   -0.7597    0.6455 C   0  0  0  0  0  0  0  0  0  0  0  0
   -1.1889    2.0556    0.3316 N   0  0  0  0  0  0  0  0  0  0  0  0
   -2.1726    2.9489    0.5219 N   0  0  0  0  0  0  0  0  0  0  0  0
   -1.7457    3.7018    1.5314 N   0  0  0  0  0  0  0  0  0  0  0  0
   -0.4840    3.3178    1.9487 N   0  0  0  0  0  0  0  0  0  0  0  0
   -0.1441    2.3136    1.1773 C   0  0  0  0  0  0  0  0  0  0  0  0
    2.4480   -0.0861    0.0450 C   0  0  0  0  0  0  0  0  0  0  0  0
    3.6293    0.6464   -0.1375 C   0  0  0  0  0  0  0  0  0  0  0  0
    4.8644   -0.0034   -0.1894 C   0  0  0  0  0  0  0  0  0  0  0  0
    4.9295   -1.3893   -0.0567 C   0  0  0  0  0  0  0  0  0  0  0  0
    3.7616   -2.1273    0.1278 C   0  0  0  0  0  0  0  0  0  0  0  0
    2.5255   -1.4792    0.1792 C   0  0  0  0  0  0  0  0  0  0  0  0
    1.7589    1.7489    1.7064 H   0  0  0  0  0  0  0  0  0  0  0  0
    0.3054   -0.4286   -1.5483 H   0  0  0  0  0  0  0  0  0  0  0  0
   -1.3101    1.5727   -1.6490 H   0  0  0  0  0  0  0  0  0  0  0  0
   -3.2615    0.4897   -2.4132 H   0  0  0  0  0  0  0  0  0  0  0  0
   -5.0950   -1.1281   -2.1229 H   0  0  0  0  0  0  0  0  0  0  0  0
   -5.2310   -2.5146   -0.0730 H   0  0  0  0  0  0  0  0  0  0  0  0
   -3.5161   -2.2768    1.7016 H   0  0  0  0  0  0  0  0  0  0  0  0
   -1.6691   -0.6708    1.4405 H   0  0  0  0  0  0  0  0  0  0  0  0
    3.5947    1.7279   -0.2515 H   0  0  0  0  0  0  0  0  0  0  0  0
    5.7752    0.5720   -0.3351 H   0  0  0  0  0  0  0  0  0  0  0  0
    5.8914   -1.8946   -0.0966 H   0  0  0  0  0  0  0  0  0  0  0  0
    3.8130   -3.2080    0.2347 H   0  0  0  0  0  0  0  0  0  0  0  0
    1.6249   -2.0693    0.3340 H   0  0  0  0  0  0  0  0  0  0  0  0
  1  2  1  0
  2  3  2  0
  3  4  1  0
  4  5  1  0
  5  6  2  0
  6  7  1  0
  7  8  2  0
  8  9  1  0
  9 10  2  0
  4 11  1  0
 11 12  1  0
 12 13  2  0
 13 14  1  0
 14 15  2  0
  2 16  1  0
 16 17  2  0
 17 18  1  0
 18 19  2  0
 19 20  1  0
 20 21  2  0
 15  1  1  0
 10  5  1  0
 15 11  1  0
 21 16  1  0
  1 22  1  0
  3 23  1  0
  4 24  1  0
  6 25  1  0
  7 26  1  0
  8 27  1  0
  9 28  1  0
 10 29  1  0
 17 30  1  0
 18 31  1  0
 19 32  1  0
 20 33  1  0
 21 34  1  0
M  END
>  <Unnamed: 0>  (51) 
372

>  <ID>  (51) 
TRAIN_0372

>  <Canonical_Smiles>  (51) 
N1C(=CC(c2ccccc2)n3nnnc13)c4ccccc4

>  <Inhibition>  (51) 
40.9

>  <TDC_conf_true_inhibitor>  (51) 
0

>  <TDC_conf_non_inhibitor>  (51) 
1

>  <split>  (51) 
1

$$$$
51
     RDKit          3D

 38 40  0  0  0  0  0  0  0  0999 V2000
   -4.2743   -2.4766    1.1773 C   0  0  0  0  0  0  0  0  0  0  0  0
   -4.3497   -1.1198    0.7574 O   0  0  0  0  0  0  0  0  0  0  0  0
   -3.1686   -0.4777    0.4837 C   0  0  0  0  0  0  0  0  0  0  0  0
   -1.9249   -1.1104    0.4312 C   0  0  0  0  0  0  0  0  0  0  0  0
   -0.8161   -0.3253    0.1655 C   0  0  0  0  0  0  0  0  0  0  0  0
    0.5869   -0.7401    0.0668 C   0  0  0  0  0  0  0  0  0  0  0  0
    0.9855   -1.8691    0.2729 O   0  0  0  0  0  0  0  0  0  0  0  0
    1.3147    0.3872   -0.2768 N   0  0  0  0  0  0  0  0  0  0  0  0
    0.4936    1.5905   -0.2553 C   0  0  0  0  0  0  0  0  0  0  0  0
   -0.8795    1.0504   -0.0398 C   0  0  0  0  0  0  0  0  0  0  0  0
   -2.1025    1.6917    0.0053 C   0  0  0  0  0  0  0  0  0  0  0  0
   -2.1966    3.5658   -0.2580 Br  0  0  0  0  0  0  0  0  0  0  0  0
   -3.2548    0.9195    0.2435 C   0  0  0  0  0  0  0  0  0  0  0  0
   -4.4725    1.5583    0.3240 O   0  0  0  0  0  0  0  0  0  0  0  0
   -5.2361    1.3411   -0.8629 C   0  0  0  0  0  0  0  0  0  0  0  0
    2.7721    0.4650   -0.2471 C   0  0  0  0  0  0  0  0  0  0  0  0
    3.4638   -0.6525   -1.0269 C   0  0  0  0  0  0  0  0  0  0  0  0
    4.9689   -0.4405   -0.9822 C   0  0  0  0  0  0  0  0  0  0  0  0
    5.4712   -0.3732    0.4412 C   0  0  0  0  0  0  0  0  0  0  0  0
    6.6333   -0.6351    0.7379 O   0  0  0  0  0  0  0  0  0  0  0  0
    4.5845    0.0765    1.3871 N   0  0  0  0  0  0  0  0  0  0  0  0
    3.2949    0.5176    1.1969 C   0  0  0  0  0  0  0  0  0  0  0  0
    2.6630    1.0121    2.1296 O   0  0  0  0  0  0  0  0  0  0  0  0
   -3.6559   -2.5814    2.0750 H   0  0  0  0  0  0  0  0  0  0  0  0
   -5.2872   -2.8042    1.4306 H   0  0  0  0  0  0  0  0  0  0  0  0
   -3.9104   -3.1174    0.3677 H   0  0  0  0  0  0  0  0  0  0  0  0
   -1.7879   -2.1730    0.5922 H   0  0  0  0  0  0  0  0  0  0  0  0
    0.8033    2.2319    0.5747 H   0  0  0  0  0  0  0  0  0  0  0  0
    0.5975    2.1022   -1.2161 H   0  0  0  0  0  0  0  0  0  0  0  0
   -4.6432    1.5210   -1.7670 H   0  0  0  0  0  0  0  0  0  0  0  0
   -5.6601    0.3327   -0.8827 H   0  0  0  0  0  0  0  0  0  0  0  0
   -6.0669    2.0532   -0.8586 H   0  0  0  0  0  0  0  0  0  0  0  0
    3.0415    1.4239   -0.7103 H   0  0  0  0  0  0  0  0  0  0  0  0
    3.1166   -0.6643   -2.0664 H   0  0  0  0  0  0  0  0  0  0  0  0
    3.2386   -1.6354   -0.5986 H   0  0  0  0  0  0  0  0  0  0  0  0
    5.2499    0.4889   -1.4894 H   0  0  0  0  0  0  0  0  0  0  0  0
    5.4692   -1.2740   -1.4869 H   0  0  0  0  0  0  0  0  0  0  0  0
    4.9383    0.1400    2.3318 H   0  0  0  0  0  0  0  0  0  0  0  0
  1  2  1  0
  2  3  1  0
  3  4  2  0
  4  5  1  0
  5  6  1  0
  6  7  2  0
  6  8  1  0
  8  9  1  0
  9 10  1  0
 10 11  1  0
 11 12  1  0
 11 13  2  0
 13 14  1  0
 14 15  1  0
  8 16  1  0
 16 17  1  0
 17 18  1  0
 18 19  1  0
 19 20  2  0
 19 21  1  0
 21 22  1  0
 22 23  2  0
 13  3  1  0
 10  5  2  0
 22 16  1  0
  1 24  1  0
  1 25  1  0
  1 26  1  0
  4 27  1  0
  9 28  1  0
  9 29  1  0
 15 30  1  0
 15 31  1  0
 15 32  1  0
 16 33  1  0
 17 34  1  0
 17 35  1  0
 18 36  1  0
 18 37  1  0
 21 38  1  0
M  END
>  <Unnamed: 0>  (52) 
374

>  <ID>  (52) 
TRAIN_0374

>  <Canonical_Smiles>  (52) 
COc1cc2C(=O)N(Cc2c(Br)c1OC)C3CCC(=O)NC3=O

>  <Inhibition>  (52) 
14.2

>  <TDC_conf_true_inhibitor>  (52) 
0

>  <TDC_conf_non_inhibitor>  (52) 
1

>  <split>  (52) 
1

$$$$
52
     RDKit          3D

 31 32  0  0  0  0  0  0  0  0999 V2000
   -2.0299   -2.2872   -1.5785 C   0  0  0  0  0  0  0  0  0  0  0  0
   -2.4193   -1.1653   -0.6894 C   0  0  0  0  0  0  0  0  0  0  0  0
   -3.6907   -0.8639   -0.2425 C   0  0  0  0  0  0  0  0  0  0  0  0
   -3.5831    0.3486    0.4682 C   0  0  0  0  0  0  0  0  0  0  0  0
   -2.3133    0.7769    0.4708 N   0  0  0  0  0  0  0  0  0  0  0  0
   -1.5868   -0.1715   -0.1818 N   0  0  0  0  0  0  0  0  0  0  0  0
   -0.1635   -0.0112   -0.2382 C   0  0  0  0  0  0  0  0  0  0  0  0
    0.3887    1.2307    0.1375 C   0  0  0  0  0  0  0  0  0  0  0  0
    1.7689    1.4467    0.1029 C   0  0  0  0  0  0  0  0  0  0  0  0
    2.6125    0.4087   -0.2872 C   0  0  0  0  0  0  0  0  0  0  0  0
    2.0882   -0.8290   -0.6614 C   0  0  0  0  0  0  0  0  0  0  0  0
    0.7035   -1.0392   -0.6294 C   0  0  0  0  0  0  0  0  0  0  0  0
    4.3673    0.6801   -0.3372 S   0  0  0  0  0  6  0  0  0  0  0  0
    4.9519   -0.3775   -1.1403 O   0  0  0  0  0  0  0  0  0  0  0  0
    4.5821    2.0744   -0.6728 O   0  0  0  0  0  0  0  0  0  0  0  0
    4.8668    0.4284    1.3461 C   0  0  0  0  0  0  0  0  0  0  0  0
   -4.6810    1.0767    1.1080 C   0  0  0  0  0  0  0  0  0  0  0  0
   -5.8516    0.7157    1.1146 O   0  0  0  0  0  0  0  0  0  0  0  0
   -4.3335    2.2300    1.7295 O   0  0  0  0  0  0  0  0  0  0  0  0
   -1.3700   -1.9528   -2.3843 H   0  0  0  0  0  0  0  0  0  0  0  0
   -2.9159   -2.7197   -2.0575 H   0  0  0  0  0  0  0  0  0  0  0  0
   -1.5512   -3.0893   -1.0092 H   0  0  0  0  0  0  0  0  0  0  0  0
   -4.5962   -1.4249   -0.4345 H   0  0  0  0  0  0  0  0  0  0  0  0
   -0.2530    2.0567    0.4453 H   0  0  0  0  0  0  0  0  0  0  0  0
    2.1660    2.4231    0.3728 H   0  0  0  0  0  0  0  0  0  0  0  0
    2.7444   -1.6385   -0.9769 H   0  0  0  0  0  0  0  0  0  0  0  0
    0.3569   -2.0307   -0.8888 H   0  0  0  0  0  0  0  0  0  0  0  0
    4.3638    1.1593    1.9819 H   0  0  0  0  0  0  0  0  0  0  0  0
    4.6098   -0.5894    1.6455 H   0  0  0  0  0  0  0  0  0  0  0  0
    5.9482    0.5699    1.4030 H   0  0  0  0  0  0  0  0  0  0  0  0
   -5.1800    2.5643    2.0838 H   0  0  0  0  0  0  0  0  0  0  0  0
  1  2  1  0
  2  3  2  0
  3  4  1  0
  4  5  2  0
  5  6  1  0
  6  7  1  0
  7  8  2  0
  8  9  1  0
  9 10  2  0
 10 11  1  0
 11 12  2  0
 10 13  1  0
 13 14  2  0
 13 15  2  0
 13 16  1  0
  4 17  1  0
 17 18  2  0
 17 19  1  0
  6  2  1  0
 12  7  1  0
  1 20  1  0
  1 21  1  0
  1 22  1  0
  3 23  1  0
  8 24  1  0
  9 25  1  0
 11 26  1  0
 12 27  1  0
 16 28  1  0
 16 29  1  0
 16 30  1  0
 19 31  1  0
M  END
>  <Unnamed: 0>  (53) 
375

>  <ID>  (53) 
TRAIN_0375

>  <Canonical_Smiles>  (53) 
Cc1cc(nn1c2ccc(cc2)S(=O)(=O)C)C(=O)O

>  <Inhibition>  (53) 
8.12

>  <TDC_conf_true_inhibitor>  (53) 
0

>  <TDC_conf_non_inhibitor>  (53) 
1

>  <split>  (53) 
1

$$$$
53
     RDKit          3D

 32 34  0  0  0  0  0  0  0  0999 V2000
   -4.2059   -1.5448    0.2235 C   0  0  0  0  0  0  0  0  0  0  0  0
   -4.1376   -0.1919   -0.2744 N   0  0  0  0  0  0  0  0  0  0  0  0
   -5.3164    0.3958   -0.6023 N   0  0  0  0  0  0  0  0  0  0  0  0
   -4.9622    1.5327   -1.1944 C   0  0  0  0  0  0  0  0  0  0  0  0
   -3.5714    1.6911   -1.2452 C   0  0  0  0  0  0  0  0  0  0  0  0
   -3.0445    0.5841   -0.6066 C   0  0  0  0  0  0  0  0  0  0  0  0
   -1.6901    0.3671   -0.4097 N   0  0  0  0  0  0  0  0  0  0  0  0
   -1.0984   -0.5502    0.4300 C   0  0  0  0  0  0  0  0  0  0  0  0
   -1.6829   -1.3362    1.1660 O   0  0  0  0  0  0  0  0  0  0  0  0
    0.3965   -0.5432    0.4602 C   0  0  0  0  0  0  0  0  0  0  0  0
    1.0215   -1.3890    1.3608 C   0  0  0  0  0  0  0  0  0  0  0  0
    2.3654   -1.4992    1.5025 N   0  0  0  0  0  0  0  0  0  0  0  0
    3.1688   -0.7312    0.7432 C   0  0  0  0  0  0  0  0  0  0  0  0
    4.5575   -0.8123    0.8891 C   0  0  0  0  0  0  0  0  0  0  0  0
    5.0842   -1.6693    1.7796 F   0  0  0  0  0  0  0  0  0  0  0  0
    5.4404   -0.0338    0.1488 C   0  0  0  0  0  0  0  0  0  0  0  0
    4.9244    0.8624   -0.7635 C   0  0  0  0  0  0  0  0  0  0  0  0
    5.7512    1.6341   -1.4789 F   0  0  0  0  0  0  0  0  0  0  0  0
    3.5512    0.9786   -0.9487 C   0  0  0  0  0  0  0  0  0  0  0  0
    2.6486    0.1746   -0.2096 C   0  0  0  0  0  0  0  0  0  0  0  0
    1.2369    0.2302   -0.3487 C   0  0  0  0  0  0  0  0  0  0  0  0
    0.6682    1.0563   -1.2934 O   0  0  0  0  0  0  0  0  0  0  0  0
   -3.4444   -2.1509   -0.2713 H   0  0  0  0  0  0  0  0  0  0  0  0
   -4.0915   -1.5224    1.3088 H   0  0  0  0  0  0  0  0  0  0  0  0
   -5.1856   -1.9678   -0.0207 H   0  0  0  0  0  0  0  0  0  0  0  0
   -5.7338    2.1951   -1.5645 H   0  0  0  0  0  0  0  0  0  0  0  0
   -3.0233    2.5218   -1.6643 H   0  0  0  0  0  0  0  0  0  0  0  0
   -1.0639    1.0383   -0.8512 H   0  0  0  0  0  0  0  0  0  0  0  0
    0.4509   -2.0351    2.0258 H   0  0  0  0  0  0  0  0  0  0  0  0
    6.5101   -0.1265    0.2958 H   0  0  0  0  0  0  0  0  0  0  0  0
    3.2098    1.7225   -1.6621 H   0  0  0  0  0  0  0  0  0  0  0  0
    1.2667    1.1191   -2.0598 H   0  0  0  0  0  0  0  0  0  0  0  0
  1  2  1  0
  2  3  1  0
  3  4  2  0
  4  5  1  0
  5  6  2  0
  6  7  1  0
  7  8  1  0
  8  9  2  0
  8 10  1  0
 10 11  2  0
 11 12  1  0
 12 13  2  0
 13 14  1  0
 14 15  1  0
 14 16  2  0
 16 17  1  0
 17 18  1  0
 17 19  2  0
 19 20  1  0
 20 21  2  0
 21 22  1  0
  6  2  1  0
 21 10  1  0
 20 13  1  0
  1 23  1  0
  1 24  1  0
  1 25  1  0
  4 26  1  0
  5 27  1  0
  7 28  1  0
 11 29  1  0
 16 30  1  0
 19 31  1  0
 22 32  1  0
M  END
>  <Unnamed: 0>  (54) 
378

>  <ID>  (54) 
TRAIN_0378

>  <Canonical_Smiles>  (54) 
Cn1nccc1NC(=O)c2cnc3c(F)cc(F)cc3c2O

>  <Inhibition>  (54) 
44.1

>  <TDC_conf_true_inhibitor>  (54) 
0

>  <TDC_conf_non_inhibitor>  (54) 
1

>  <split>  (54) 
1

$$$$
54
     RDKit          3D

 47 51  0  0  0  0  0  0  0  0999 V2000
   -5.2323   -4.5907    2.7292 F   0  0  0  0  0  0  0  0  0  0  0  0
   -4.5030   -3.6397    2.1317 C   0  0  0  0  0  0  0  0  0  0  0  0
   -3.1471   -3.8464    1.9206 C   0  0  0  0  0  0  0  0  0  0  0  0
   -2.3871   -2.8535    1.2967 C   0  0  0  0  0  0  0  0  0  0  0  0
   -2.9863   -1.6476    0.8824 C   0  0  0  0  0  0  0  0  0  0  0  0
   -4.3583   -1.4596    1.1062 C   0  0  0  0  0  0  0  0  0  0  0  0
   -5.1134   -2.4583    1.7311 C   0  0  0  0  0  0  0  0  0  0  0  0
   -2.1797   -0.6515    0.2470 N   0  0  0  0  0  0  0  0  0  0  0  0
   -0.8489   -0.8993    0.0452 N   0  0  0  0  0  0  0  0  0  0  0  0
   -0.3712    0.2081   -0.5591 C   0  0  0  0  0  0  0  0  0  0  0  0
    1.0411    0.3200   -0.9300 C   0  0  0  0  0  0  0  0  0  0  0  0
    1.5599    1.3228   -1.4184 O   0  0  0  0  0  0  0  0  0  0  0  0
    1.7723   -0.8261   -0.6614 N   0  0  0  0  0  0  0  0  0  0  0  0
    3.1758   -0.7397   -0.6730 N   0  0  0  0  0  0  0  0  0  0  0  0
    3.8493   -1.3852    0.3482 C   0  0  0  0  0  0  0  0  0  0  0  0
    3.2882   -2.1420    1.1371 O   0  0  0  0  0  0  0  0  0  0  0  0
    5.3032   -1.0893    0.4756 C   0  0  0  0  0  0  0  0  0  0  0  0
    5.9167   -1.3011    1.7174 C   0  0  0  0  0  0  0  0  0  0  0  0
    7.2772   -1.0368    1.8844 C   0  0  0  0  0  0  0  0  0  0  0  0
    8.0324   -0.5679    0.8105 C   0  0  0  0  0  0  0  0  0  0  0  0
    7.4319   -0.3690   -0.4325 C   0  0  0  0  0  0  0  0  0  0  0  0
    6.0703   -0.6316   -0.6044 C   0  0  0  0  0  0  0  0  0  0  0  0
   -1.3876    1.1672   -0.7488 C   0  0  0  0  0  0  0  0  0  0  0  0
   -1.3858    2.4061   -1.3016 N   0  0  0  0  0  0  0  0  0  0  0  0
   -2.5737    3.0269   -1.3012 C   0  0  0  0  0  0  0  0  0  0  0  0
   -2.6538    4.3006   -1.8495 C   0  0  0  0  0  0  0  0  0  0  0  0
   -3.8569    5.0064   -1.8836 C   0  0  0  0  0  0  0  0  0  0  0  0
   -5.0036    4.4274   -1.3589 C   0  0  0  0  0  0  0  0  0  0  0  0
   -4.9364    3.1480   -0.8050 C   0  0  0  0  0  0  0  0  0  0  0  0
   -3.7454    2.4341   -0.7645 C   0  0  0  0  0  0  0  0  0  0  0  0
   -3.7540    1.2073   -0.2167 N   0  0  0  0  0  0  0  0  0  0  0  0
   -2.5426    0.6020   -0.2289 C   0  0  0  0  0  0  0  0  0  0  0  0
   -2.6872   -4.7759    2.2415 H   0  0  0  0  0  0  0  0  0  0  0  0
   -1.3251   -3.0397    1.1445 H   0  0  0  0  0  0  0  0  0  0  0  0
   -4.8789   -0.5543    0.8106 H   0  0  0  0  0  0  0  0  0  0  0  0
   -6.1757   -2.3184    1.9069 H   0  0  0  0  0  0  0  0  0  0  0  0
    1.3584   -1.5307   -0.0465 H   0  0  0  0  0  0  0  0  0  0  0  0
    3.5512    0.1074   -1.0976 H   0  0  0  0  0  0  0  0  0  0  0  0
    5.3349   -1.6708    2.5598 H   0  0  0  0  0  0  0  0  0  0  0  0
    7.7468   -1.2000    2.8513 H   0  0  0  0  0  0  0  0  0  0  0  0
    9.0928   -0.3650    0.9406 H   0  0  0  0  0  0  0  0  0  0  0  0
    8.0279   -0.0165   -1.2712 H   0  0  0  0  0  0  0  0  0  0  0  0
    5.6367   -0.4966   -1.5911 H   0  0  0  0  0  0  0  0  0  0  0  0
   -1.7546    4.7546   -2.2608 H   0  0  0  0  0  0  0  0  0  0  0  0
   -3.8924    6.0021   -2.3186 H   0  0  0  0  0  0  0  0  0  0  0  0
   -5.9486    4.9648   -1.3780 H   0  0  0  0  0  0  0  0  0  0  0  0
   -5.8372    2.6974   -0.3945 H   0  0  0  0  0  0  0  0  0  0  0  0
  1  2  1  0
  2  3  2  0
  3  4  1  0
  4  5  2  0
  5  6  1  0
  6  7  2  0
  5  8  1  0
  8  9  1  0
  9 10  2  0
 10 11  1  0
 11 12  2  0
 11 13  1  0
 13 14  1  0
 14 15  1  0
 15 16  2  0
 15 17  1  0
 17 18  2  0
 18 19  1  0
 19 20  2  0
 20 21  1  0
 21 22  2  0
 10 23  1  0
 23 24  2  0
 24 25  1  0
 25 26  2  0
 26 27  1  0
 27 28  2  0
 28 29  1  0
 29 30  2  0
 30 31  1  0
 31 32  2  0
  7  2  1  0
 32  8  1  0
 22 17  1  0
 32 23  1  0
 30 25  1  0
  3 33  1  0
  4 34  1  0
  6 35  1  0
  7 36  1  0
 13 37  1  0
 14 38  1  0
 18 39  1  0
 19 40  1  0
 20 41  1  0
 21 42  1  0
 22 43  1  0
 26 44  1  0
 27 45  1  0
 28 46  1  0
 29 47  1  0
M  END
>  <Unnamed: 0>  (55) 
383

>  <ID>  (55) 
TRAIN_0383

>  <Canonical_Smiles>  (55) 
Fc1ccc(cc1)n2nc(C(=O)NNC(=O)c3ccccc3)c4nc5ccccc5nc24

>  <Inhibition>  (55) 
0.0

>  <TDC_conf_true_inhibitor>  (55) 
0

>  <TDC_conf_non_inhibitor>  (55) 
1

>  <split>  (55) 
1

$$$$
55
     RDKit          3D

 58 61  0  0  0  0  0  0  0  0999 V2000
   11.8661    1.4333   -0.5946 C   0  0  0  0  0  0  0  0  0  0  0  0
   10.7215    0.9429    0.2705 C   0  0  0  0  0  0  0  0  0  0  0  0
   10.0293   -0.0881   -0.4459 O   0  0  0  0  0  0  0  0  0  0  0  0
    8.9885   -0.6461    0.2441 C   0  0  0  0  0  0  0  0  0  0  0  0
    8.6387   -0.3085    1.3665 O   0  0  0  0  0  0  0  0  0  0  0  0
    8.3424   -1.7310   -0.6123 C   0  0  0  0  0  0  0  0  0  0  0  0
    7.2697   -2.4346   -0.0035 O   0  0  0  0  0  0  0  0  0  0  0  0
    6.0233   -1.8774   -0.0418 C   0  0  0  0  0  0  0  0  0  0  0  0
    5.7100   -0.5766   -0.4309 C   0  0  0  0  0  0  0  0  0  0  0  0
    4.3788   -0.1326   -0.4136 C   0  0  0  0  0  0  0  0  0  0  0  0
    3.3401   -0.9802   -0.0040 C   0  0  0  0  0  0  0  0  0  0  0  0
    3.6688   -2.2852    0.3838 C   0  0  0  0  0  0  0  0  0  0  0  0
    4.9956   -2.7257    0.3705 C   0  0  0  0  0  0  0  0  0  0  0  0
    1.9357   -0.5559    0.0286 C   0  0  0  0  0  0  0  0  0  0  0  0
    0.8901   -1.3529    0.1761 N   0  0  0  0  0  0  0  0  0  0  0  0
   -0.2177   -0.5446    0.1507 C   0  0  0  0  0  0  0  0  0  0  0  0
   -1.5755   -0.8797    0.2581 C   0  0  0  0  0  0  0  0  0  0  0  0
   -2.5409    0.1397    0.2008 C   0  0  0  0  0  0  0  0  0  0  0  0
   -3.8905   -0.2582    0.3242 N   0  0  0  0  0  0  0  0  0  0  0  0
   -5.0239    0.5205    0.1386 C   0  0  0  0  0  0  0  0  0  0  0  0
   -5.0280    1.6740   -0.2675 O   0  0  0  0  0  0  0  0  0  0  0  0
   -6.1575   -0.2017    0.4874 N   0  0  0  0  0  0  0  0  0  0  0  0
   -7.5037    0.1914    0.3341 C   0  0  0  0  0  0  0  0  0  0  0  0
   -8.4761   -0.6055    0.9490 C   0  0  0  0  0  0  0  0  0  0  0  0
   -9.8377   -0.2936    0.8429 C   0  0  0  0  0  0  0  0  0  0  0  0
  -10.2525    0.8212    0.1116 C   0  0  0  0  0  0  0  0  0  0  0  0
  -11.5583    1.2029   -0.0490 O   0  0  0  0  0  0  0  0  0  0  0  0
  -12.5548    0.4638    0.6440 C   0  0  0  0  0  0  0  0  0  0  0  0
   -9.2758    1.6105   -0.5158 C   0  0  0  0  0  0  0  0  0  0  0  0
   -9.7147    2.9999   -1.4521 Cl  0  0  0  0  0  0  0  0  0  0  0  0
   -7.9143    1.2986   -0.4068 C   0  0  0  0  0  0  0  0  0  0  0  0
   -2.1340    1.4707    0.0531 C   0  0  0  0  0  0  0  0  0  0  0  0
   -0.7798    1.8244   -0.0551 C   0  0  0  0  0  0  0  0  0  0  0  0
    0.1446    0.7833   -0.0036 C   0  0  0  0  0  0  0  0  0  0  0  0
    1.5126    0.7516   -0.0730 N   0  0  0  0  0  0  0  0  0  0  0  0
   12.5490    0.6118   -0.8333 H   0  0  0  0  0  0  0  0  0  0  0  0
   11.4909    1.8216   -1.5471 H   0  0  0  0  0  0  0  0  0  0  0  0
   12.4270    2.2231   -0.0873 H   0  0  0  0  0  0  0  0  0  0  0  0
   11.1151    0.5420    1.2114 H   0  0  0  0  0  0  0  0  0  0  0  0
   10.0342    1.7706    0.4799 H   0  0  0  0  0  0  0  0  0  0  0  0
    9.1210   -2.4782   -0.8064 H   0  0  0  0  0  0  0  0  0  0  0  0
    8.0455   -1.3172   -1.5836 H   0  0  0  0  0  0  0  0  0  0  0  0
    6.4719    0.1296   -0.7421 H   0  0  0  0  0  0  0  0  0  0  0  0
    4.1818    0.8859   -0.7344 H   0  0  0  0  0  0  0  0  0  0  0  0
    2.8861   -2.9703    0.7062 H   0  0  0  0  0  0  0  0  0  0  0  0
    5.2243   -3.7416    0.6836 H   0  0  0  0  0  0  0  0  0  0  0  0
   -1.8425   -1.9224    0.3796 H   0  0  0  0  0  0  0  0  0  0  0  0
   -4.0468   -1.2517    0.3996 H   0  0  0  0  0  0  0  0  0  0  0  0
   -5.9938   -1.0160    1.0595 H   0  0  0  0  0  0  0  0  0  0  0  0
   -8.1920   -1.4818    1.5269 H   0  0  0  0  0  0  0  0  0  0  0  0
  -10.5465   -0.9457    1.3432 H   0  0  0  0  0  0  0  0  0  0  0  0
  -12.6009   -0.5694    0.2832 H   0  0  0  0  0  0  0  0  0  0  0  0
  -12.3932    0.4979    1.7264 H   0  0  0  0  0  0  0  0  0  0  0  0
  -13.5226    0.9311    0.4377 H   0  0  0  0  0  0  0  0  0  0  0  0
   -7.1976    1.9327   -0.9191 H   0  0  0  0  0  0  0  0  0  0  0  0
   -2.8599    2.2795    0.0248 H   0  0  0  0  0  0  0  0  0  0  0  0
   -0.4813    2.8606   -0.1708 H   0  0  0  0  0  0  0  0  0  0  0  0
    2.1103    1.5570   -0.1666 H   0  0  0  0  0  0  0  0  0  0  0  0
  1  2  1  0
  2  3  1  0
  3  4  1  0
  4  5  2  0
  4  6  1  0
  6  7  1  0
  7  8  1  0
  8  9  2  0
  9 10  1  0
 10 11  2  0
 11 12  1  0
 12 13  2  0
 11 14  1  0
 14 15  2  0
 15 16  1  0
 16 17  2  0
 17 18  1  0
 18 19  1  0
 19 20  1  0
 20 21  2  0
 20 22  1  0
 22 23  1  0
 23 24  2  0
 24 25  1  0
 25 26  2  0
 26 27  1  0
 27 28  1  0
 26 29  1  0
 29 30  1  0
 29 31  2  0
 18 32  2  0
 32 33  1  0
 33 34  2  0
 34 35  1  0
 13  8  1  0
 35 14  1  0
 34 16  1  0
 31 23  1  0
  1 36  1  0
  1 37  1  0
  1 38  1  0
  2 39  1  0
  2 40  1  0
  6 41  1  0
  6 42  1  0
  9 43  1  0
 10 44  1  0
 12 45  1  0
 13 46  1  0
 17 47  1  0
 19 48  1  0
 22 49  1  0
 24 50  1  0
 25 51  1  0
 28 52  1  0
 28 53  1  0
 28 54  1  0
 31 55  1  0
 32 56  1  0
 33 57  1  0
 35 58  1  0
M  END
>  <Unnamed: 0>  (56) 
390

>  <ID>  (56) 
TRAIN_0390

>  <Canonical_Smiles>  (56) 
CCOC(=O)COc1ccc(cc1)c2nc3cc(NC(=O)Nc4ccc(OC)c(Cl)c4)ccc3[nH]2

>  <Inhibition>  (56) 
32.9

>  <TDC_conf_true_inhibitor>  (56) 
0

>  <TDC_conf_non_inhibitor>  (56) 
1

>  <split>  (56) 
1

$$$$
56
     RDKit          3D

 36 38  0  0  0  0  0  0  0  0999 V2000
    5.7251   -0.2717    1.4143 C   0  0  0  0  0  0  0  0  0  0  0  0
    5.3388   -0.7341    0.0219 C   0  0  0  0  0  0  0  0  0  0  0  0
    4.1898   -0.0079   -0.4396 O   0  0  0  0  0  0  0  0  0  0  0  0
    2.9856   -0.5229   -0.0835 C   0  0  0  0  0  0  0  0  0  0  0  0
    2.8097   -1.5285    0.5841 O   0  0  0  0  0  0  0  0  0  0  0  0
    1.8785    0.3215   -0.6186 C   0  0  0  0  0  0  0  0  0  0  0  0
    2.1233    1.4206   -1.4535 C   0  0  0  0  0  0  0  0  0  0  0  0
    1.0725    2.1946   -1.9532 C   0  0  0  0  0  0  0  0  0  0  0  0
   -0.2171    1.8215   -1.5797 C   0  0  0  0  0  0  0  0  0  0  0  0
   -1.3433    2.4578   -1.9835 O   0  0  0  0  0  0  0  0  0  0  0  0
   -2.3940    1.8073   -1.4231 C   0  0  0  0  0  0  0  0  0  0  0  0
   -3.7171    2.1720   -1.6229 C   0  0  0  0  0  0  0  0  0  0  0  0
   -4.6271    1.3752   -0.9638 C   0  0  0  0  0  0  0  0  0  0  0  0
   -4.2969    0.3299   -0.1787 N   0  0  0  0  0  0  0  0  0  0  0  0
   -2.9703    0.0004    0.0050 C   0  0  0  0  0  0  0  0  0  0  0  0
   -2.7273   -1.1550    0.9184 C   0  0  0  0  0  0  0  0  0  0  0  0
   -1.6130   -1.4799    1.3004 O   0  0  0  0  0  0  0  0  0  0  0  0
   -3.8806   -1.8064    1.3127 N   0  0  0  0  0  0  0  0  0  0  0  0
   -3.8727   -2.8462    2.3054 C   0  0  0  0  0  0  0  0  0  0  0  0
   -1.9627    0.7414   -0.6344 C   0  0  0  0  0  0  0  0  0  0  0  0
   -0.5273    0.7475   -0.7494 C   0  0  0  0  0  0  0  0  0  0  0  0
    0.5558   -0.0208   -0.2646 C   0  0  0  0  0  0  0  0  0  0  0  0
    4.9249   -0.4765    2.1326 H   0  0  0  0  0  0  0  0  0  0  0  0
    5.8950    0.8099    1.4267 H   0  0  0  0  0  0  0  0  0  0  0  0
    6.6348   -0.7760    1.7519 H   0  0  0  0  0  0  0  0  0  0  0  0
    5.1663   -1.8161   -0.0088 H   0  0  0  0  0  0  0  0  0  0  0  0
    6.1541   -0.5189   -0.6765 H   0  0  0  0  0  0  0  0  0  0  0  0
    3.1397    1.6903   -1.7334 H   0  0  0  0  0  0  0  0  0  0  0  0
    1.2461    3.0443   -2.6035 H   0  0  0  0  0  0  0  0  0  0  0  0
   -4.0017    3.0077   -2.2463 H   0  0  0  0  0  0  0  0  0  0  0  0
   -5.6940    1.5666   -1.0521 H   0  0  0  0  0  0  0  0  0  0  0  0
   -4.7545   -1.3619    1.0416 H   0  0  0  0  0  0  0  0  0  0  0  0
   -2.9965   -3.4875    2.1795 H   0  0  0  0  0  0  0  0  0  0  0  0
   -3.8447   -2.3828    3.2950 H   0  0  0  0  0  0  0  0  0  0  0  0
   -4.7861   -3.4357    2.1991 H   0  0  0  0  0  0  0  0  0  0  0  0
    0.3871   -0.8795    0.3803 H   0  0  0  0  0  0  0  0  0  0  0  0
  1  2  1  0
  2  3  1  0
  3  4  1  0
  4  5  2  0
  4  6  1  0
  6  7  2  0
  7  8  1  0
  8  9  2  0
  9 10  1  0
 10 11  1  0
 11 12  2  0
 12 13  1  0
 13 14  2  0
 14 15  1  0
 15 16  1  0
 16 17  2  0
 16 18  1  0
 18 19  1  0
 15 20  2  0
 20 21  1  0
 21 22  2  0
 22  6  1  0
 21  9  1  0
 20 11  1  0
  1 23  1  0
  1 24  1  0
  1 25  1  0
  2 26  1  0
  2 27  1  0
  7 28  1  0
  8 29  1  0
 12 30  1  0
 13 31  1  0
 18 32  1  0
 19 33  1  0
 19 34  1  0
 19 35  1  0
 22 36  1  0
M  END
>  <Unnamed: 0>  (57) 
392

>  <ID>  (57) 
TRAIN_0392

>  <Canonical_Smiles>  (57) 
CCOC(=O)c1ccc2oc3ccnc(C(=O)NC)c3c2c1

>  <Inhibition>  (57) 
42.4

>  <TDC_conf_true_inhibitor>  (57) 
0

>  <TDC_conf_non_inhibitor>  (57) 
1

>  <split>  (57) 
1

$$$$
57
     RDKit          3D

 44 46  0  0  0  0  0  0  0  0999 V2000
    4.6094    1.2835   -0.5989 C   0  0  0  0  0  0  0  0  0  0  0  0
    4.4494   -0.0249    0.1744 C   0  0  0  0  0  0  0  0  0  0  0  0
    5.1787    0.0782    1.5170 C   0  0  0  0  0  0  0  0  0  0  0  0
    2.9751   -0.4123    0.4114 C   0  0  0  0  0  0  0  0  0  0  0  0
    2.1830   -0.6509   -0.8762 C   0  0  2  0  0  0  0  0  0  0  0  0
    1.5133    0.5520   -1.3357 N   0  0  0  0  0  0  0  0  0  0  0  0
    0.1803    0.4833   -1.0310 C   0  0  0  0  0  0  0  0  0  0  0  0
   -0.4730    1.6017   -0.9412 N   0  0  0  0  0  0  0  0  0  0  0  0
   -1.7429    1.7345   -0.3702 C   0  0  0  0  0  0  0  0  0  0  0  0
   -2.0102    1.3445    0.9469 C   0  0  0  0  0  0  0  0  0  0  0  0
   -3.2779    1.5357    1.5019 C   0  0  0  0  0  0  0  0  0  0  0  0
   -4.2816    2.1463    0.7521 C   0  0  0  0  0  0  0  0  0  0  0  0
   -4.0148    2.5764   -0.5463 C   0  0  0  0  0  0  0  0  0  0  0  0
   -2.7467    2.3807   -1.0976 C   0  0  0  0  0  0  0  0  0  0  0  0
   -0.1700   -0.8188   -0.7653 N   0  0  0  0  0  0  0  0  0  0  0  0
    0.9866   -1.5798   -0.6188 C   0  0  0  0  0  0  0  0  0  0  0  0
    1.1056   -2.7690   -0.3478 O   0  0  0  0  0  0  0  0  0  0  0  0
   -1.4587   -1.4108   -0.8202 C   0  0  0  0  0  0  0  0  0  0  0  0
   -2.4173   -0.9570   -1.7364 C   0  0  0  0  0  0  0  0  0  0  0  0
   -3.6815   -1.5489   -1.8106 C   0  0  0  0  0  0  0  0  0  0  0  0
   -4.0000   -2.6185   -0.9795 C   0  0  0  0  0  0  0  0  0  0  0  0
   -3.0516   -3.1014   -0.0827 C   0  0  0  0  0  0  0  0  0  0  0  0
   -1.7879   -2.5069   -0.0098 C   0  0  0  0  0  0  0  0  0  0  0  0
    4.0810    2.1052   -0.1040 H   0  0  0  0  0  0  0  0  0  0  0  0
    4.2262    1.1908   -1.6195 H   0  0  0  0  0  0  0  0  0  0  0  0
    5.6661    1.5616   -0.6773 H   0  0  0  0  0  0  0  0  0  0  0  0
    4.9298   -0.8237   -0.4050 H   0  0  0  0  0  0  0  0  0  0  0  0
    6.2396    0.3055    1.3678 H   0  0  0  0  0  0  0  0  0  0  0  0
    4.7477    0.8665    2.1436 H   0  0  0  0  0  0  0  0  0  0  0  0
    5.1161   -0.8661    2.0682 H   0  0  0  0  0  0  0  0  0  0  0  0
    2.4860    0.3545    1.0274 H   0  0  0  0  0  0  0  0  0  0  0  0
    2.9656   -1.3320    1.0116 H   0  0  0  0  0  0  0  0  0  0  0  0
    2.7915   -1.0814   -1.6779 H   0  0  0  0  0  0  0  0  0  0  0  0
    1.9277    1.4601   -1.1642 H   0  0  0  0  0  0  0  0  0  0  0  0
   -1.2294    0.8870    1.5466 H   0  0  0  0  0  0  0  0  0  0  0  0
   -3.4782    1.2129    2.5198 H   0  0  0  0  0  0  0  0  0  0  0  0
   -5.2677    2.2969    1.1836 H   0  0  0  0  0  0  0  0  0  0  0  0
   -4.7890    3.0685   -1.1282 H   0  0  0  0  0  0  0  0  0  0  0  0
   -2.5346    2.7294   -2.1046 H   0  0  0  0  0  0  0  0  0  0  0  0
   -2.1841   -0.1507   -2.4274 H   0  0  0  0  0  0  0  0  0  0  0  0
   -4.4122   -1.1754   -2.5231 H   0  0  0  0  0  0  0  0  0  0  0  0
   -4.9821   -3.0801   -1.0365 H   0  0  0  0  0  0  0  0  0  0  0  0
   -3.2910   -3.9427    0.5625 H   0  0  0  0  0  0  0  0  0  0  0  0
   -1.0762   -2.9044    0.7097 H   0  0  0  0  0  0  0  0  0  0  0  0
  1  2  1  0
  2  3  1  0
  2  4  1  0
  4  5  1  0
  5  6  1  0
  6  7  1  0
  7  8  2  0
  8  9  1  0
  9 10  2  0
 10 11  1  0
 11 12  2  0
 12 13  1  0
 13 14  2  0
  7 15  1  0
 15 16  1  0
 16 17  2  0
 15 18  1  0
 18 19  2  0
 19 20  1  0
 20 21  2  0
 21 22  1  0
 22 23  2  0
 16  5  1  0
 14  9  1  0
 23 18  1  0
  1 24  1  0
  1 25  1  0
  1 26  1  0
  2 27  1  0
  3 28  1  0
  3 29  1  0
  3 30  1  0
  4 31  1  0
  4 32  1  0
  5 33  1  6
  6 34  1  0
 10 35  1  0
 11 36  1  0
 12 37  1  0
 13 38  1  0
 14 39  1  0
 19 40  1  0
 20 41  1  0
 21 42  1  0
 22 43  1  0
 23 44  1  0
M  END
>  <Unnamed: 0>  (58) 
405

>  <ID>  (58) 
TRAIN_0405

>  <Canonical_Smiles>  (58) 
CC(C)C[C@@H]1N\C(=N\c2ccccc2)\N(C1=O)c3ccccc3

>  <Inhibition>  (58) 
25.9

>  <TDC_conf_true_inhibitor>  (58) 
0

>  <TDC_conf_non_inhibitor>  (58) 
1

>  <split>  (58) 
1

$$$$
58
     RDKit          3D

 30 32  0  0  0  0  0  0  0  0999 V2000
    1.4268   -2.8451   -2.6855 O   0  0  0  0  0  0  0  0  0  0  0  0
    0.6938   -3.1711   -1.4834 S   0  0  0  0  0  6  0  0  0  0  0  0
    0.3727   -4.5311   -1.1148 O   0  0  0  0  0  0  0  0  0  0  0  0
    1.4562   -2.4826   -0.2262 O   0  0  0  0  0  0  0  0  0  0  0  0
    0.7440   -1.3961    0.3366 C   0  0  0  0  0  0  0  0  0  0  0  0
   -0.5456   -1.3844   -0.4514 C   0  0  0  0  0  0  0  0  0  0  0  0
   -0.6446   -2.2561   -1.4024 N   0  0  0  0  0  0  0  0  0  0  0  0
   -1.6480   -0.4326   -0.1456 C   0  0  0  0  0  0  0  0  0  0  0  0
   -1.6481    0.3622    1.0064 C   0  0  0  0  0  0  0  0  0  0  0  0
   -2.7074    1.2405    1.2527 C   0  0  0  0  0  0  0  0  0  0  0  0
   -3.7712    1.3264    0.3565 C   0  0  0  0  0  0  0  0  0  0  0  0
   -3.7813    0.5338   -0.7886 C   0  0  0  0  0  0  0  0  0  0  0  0
   -2.7249   -0.3440   -1.0392 C   0  0  0  0  0  0  0  0  0  0  0  0
    1.5853   -0.1474    0.2194 C   0  0  0  0  0  0  0  0  0  0  0  0
    2.1794    0.4021    1.3672 C   0  0  0  0  0  0  0  0  0  0  0  0
    2.9626    1.5546    1.2818 C   0  0  0  0  0  0  0  0  0  0  0  0
    3.1719    2.1662    0.0484 C   0  0  0  0  0  0  0  0  0  0  0  0
    2.6055    1.6223   -1.1017 C   0  0  0  0  0  0  0  0  0  0  0  0
    1.8214    0.4701   -1.0197 C   0  0  0  0  0  0  0  0  0  0  0  0
    0.5197   -1.6410    1.3805 H   0  0  0  0  0  0  0  0  0  0  0  0
   -0.8448    0.3236    1.7348 H   0  0  0  0  0  0  0  0  0  0  0  0
   -2.7032    1.8601    2.1467 H   0  0  0  0  0  0  0  0  0  0  0  0
   -4.5936    2.0109    0.5510 H   0  0  0  0  0  0  0  0  0  0  0  0
   -4.6113    0.5978   -1.4883 H   0  0  0  0  0  0  0  0  0  0  0  0
   -2.7527   -0.9540   -1.9402 H   0  0  0  0  0  0  0  0  0  0  0  0
    2.0436   -0.0659    2.3402 H   0  0  0  0  0  0  0  0  0  0  0  0
    3.4176    1.9715    2.1770 H   0  0  0  0  0  0  0  0  0  0  0  0
    3.7863    3.0604   -0.0193 H   0  0  0  0  0  0  0  0  0  0  0  0
    2.7814    2.0901   -2.0674 H   0  0  0  0  0  0  0  0  0  0  0  0
    1.4086    0.0588   -1.9398 H   0  0  0  0  0  0  0  0  0  0  0  0
  1  2  2  0
  2  3  2  0
  2  4  1  0
  4  5  1  0
  5  6  1  0
  6  7  2  0
  6  8  1  0
  8  9  2  0
  9 10  1  0
 10 11  2  0
 11 12  1  0
 12 13  2  0
  5 14  1  0
 14 15  2  0
 15 16  1  0
 16 17  2  0
 17 18  1  0
 18 19  2  0
  7  2  1  0
 13  8  1  0
 19 14  1  0
  5 20  1  0
  9 21  1  0
 10 22  1  0
 11 23  1  0
 12 24  1  0
 13 25  1  0
 15 26  1  0
 16 27  1  0
 17 28  1  0
 18 29  1  0
 19 30  1  0
M  END
>  <Unnamed: 0>  (59) 
410

>  <ID>  (59) 
TRAIN_0410

>  <Canonical_Smiles>  (59) 
O=S1(=O)OC(C(=N1)c2ccccc2)c3ccccc3

>  <Inhibition>  (59) 
39.4

>  <TDC_conf_true_inhibitor>  (59) 
0

>  <TDC_conf_non_inhibitor>  (59) 
1

>  <split>  (59) 
1

$$$$
59
     RDKit          3D

 37 38  0  0  0  0  0  0  0  0999 V2000
    5.2467   -1.6791   -0.8360 C   0  0  0  0  0  0  0  0  0  0  0  0
    4.7292   -0.3155   -0.4544 C   0  0  0  0  0  0  0  0  0  0  0  0
    5.5034    0.6380   -0.3687 O   0  0  0  0  0  0  0  0  0  0  0  0
    3.3638   -0.1954   -0.2314 N   0  0  0  0  0  0  0  0  0  0  0  0
    2.8789    1.0791    0.3105 C   0  0  0  0  0  0  0  0  0  0  0  0
    1.4011    1.3564   -0.0168 C   0  0  0  0  0  0  0  0  0  0  0  0
    0.5545    0.1892    0.3435 N   0  0  0  0  0  0  0  0  0  0  0  0
    1.0085   -1.0501   -0.3217 C   0  0  0  0  0  0  0  0  0  0  0  0
    2.4818   -1.3432    0.0194 C   0  0  0  0  0  0  0  0  0  0  0  0
   -0.8207    0.4762    0.3316 C   0  0  0  0  0  0  0  0  0  0  0  0
   -1.3316    1.4318    1.2240 C   0  0  0  0  0  0  0  0  0  0  0  0
   -2.6919    1.7656    1.2533 C   0  0  0  0  0  0  0  0  0  0  0  0
   -3.5908    1.1721    0.3693 C   0  0  0  0  0  0  0  0  0  0  0  0
   -4.9578    1.4715    0.4700 N   0  0  0  0  0  0  0  0  0  0  0  0
   -3.1123    0.1373   -0.4459 C   0  0  0  0  0  0  0  0  0  0  0  0
   -3.9163   -0.5861   -1.2896 O   0  0  0  0  0  0  0  0  0  0  0  0
   -4.9743   -1.2348   -0.5976 C   0  0  0  0  0  0  0  0  0  0  0  0
   -6.1306   -0.6010   -0.9270 F   0  0  0  0  0  0  0  0  0  0  0  0
   -5.0713   -2.4906   -1.1099 F   0  0  0  0  0  0  0  0  0  0  0  0
   -1.7455   -0.1735   -0.4943 C   0  0  0  0  0  0  0  0  0  0  0  0
    5.1042   -2.3823   -0.0114 H   0  0  0  0  0  0  0  0  0  0  0  0
    6.3185   -1.6130   -1.0474 H   0  0  0  0  0  0  0  0  0  0  0  0
    4.7449   -2.0349   -1.7396 H   0  0  0  0  0  0  0  0  0  0  0  0
    3.0171    1.0326    1.3980 H   0  0  0  0  0  0  0  0  0  0  0  0
    3.4915    1.9072   -0.0625 H   0  0  0  0  0  0  0  0  0  0  0  0
    1.1034    2.2632    0.5213 H   0  0  0  0  0  0  0  0  0  0  0  0
    1.2967    1.5587   -1.0911 H   0  0  0  0  0  0  0  0  0  0  0  0
    0.4083   -1.9071    0.0072 H   0  0  0  0  0  0  0  0  0  0  0  0
    0.9082   -0.9499   -1.4103 H   0  0  0  0  0  0  0  0  0  0  0  0
    2.5802   -1.5899    1.0838 H   0  0  0  0  0  0  0  0  0  0  0  0
    2.8100   -2.2157   -0.5513 H   0  0  0  0  0  0  0  0  0  0  0  0
   -0.6665    1.9153    1.9364 H   0  0  0  0  0  0  0  0  0  0  0  0
   -3.0343    2.5027    1.9749 H   0  0  0  0  0  0  0  0  0  0  0  0
   -5.1420    2.4052    0.8271 H   0  0  0  0  0  0  0  0  0  0  0  0
   -5.4687    1.3075   -0.3990 H   0  0  0  0  0  0  0  0  0  0  0  0
   -4.8666   -1.3088    0.4912 H   0  0  0  0  0  0  0  0  0  0  0  0
   -1.4297   -0.9387   -1.1961 H   0  0  0  0  0  0  0  0  0  0  0  0
  1  2  1  0
  2  3  2  0
  2  4  1  0
  4  5  1  0
  5  6  1  0
  6  7  1  0
  7  8  1  0
  8  9  1  0
  7 10  1  0
 10 11  2  0
 11 12  1  0
 12 13  2  0
 13 14  1  0
 13 15  1  0
 15 16  1  0
 16 17  1  0
 17 18  1  0
 17 19  1  0
 15 20  2  0
  9  4  1  0
 20 10  1  0
  1 21  1  0
  1 22  1  0
  1 23  1  0
  5 24  1  0
  5 25  1  0
  6 26  1  0
  6 27  1  0
  8 28  1  0
  8 29  1  0
  9 30  1  0
  9 31  1  0
 11 32  1  0
 12 33  1  0
 14 34  1  0
 14 35  1  0
 17 36  1  0
 20 37  1  0
M  END
>  <Unnamed: 0>  (60) 
412

>  <ID>  (60) 
TRAIN_0412

>  <Canonical_Smiles>  (60) 
CC(=O)N1CCN(CC1)c2ccc(N)c(OC(F)F)c2

>  <Inhibition>  (60) 
17.0

>  <TDC_conf_true_inhibitor>  (60) 
0

>  <TDC_conf_non_inhibitor>  (60) 
1

>  <split>  (60) 
1

$$$$
60
     RDKit          3D

 51 54  0  0  0  0  0  0  0  0999 V2000
   -4.0081   -4.6675   -3.4325 Cl  0  0  0  0  0  0  0  0  0  0  0  0
   -3.4772   -3.1783   -2.7635 C   0  0  0  0  0  0  0  0  0  0  0  0
   -3.9276   -1.9288   -3.0952 C   0  0  0  0  0  0  0  0  0  0  0  0
   -3.2545   -0.9229   -2.3367 C   0  0  0  0  0  0  0  0  0  0  0  0
   -2.3254   -1.4497   -1.4540 C   0  0  0  0  0  0  0  0  0  0  0  0
   -2.2765   -3.1672   -1.5776 S   0  0  0  0  0  0  0  0  0  0  0  0
   -1.4499   -0.7728   -0.5198 C   0  0  0  0  0  0  0  0  0  0  0  0
   -0.4561   -1.3703    0.0723 N   0  0  0  0  0  0  0  0  0  0  0  0
    0.2068   -0.4406    0.8566 N   0  0  0  0  0  0  0  0  0  0  0  0
   -0.6428    0.7438    1.0200 C   0  0  0  0  0  0  0  0  0  0  0  0
   -1.5360    0.7153   -0.2188 C   0  0  0  0  0  0  0  0  0  0  0  0
   -2.8487    1.3268   -0.0495 N   0  0  0  0  0  0  0  0  0  0  0  0
   -3.1843    2.6098   -0.6166 C   0  0  0  0  0  0  0  0  0  0  0  0
   -4.2989    3.1249    0.2745 C   0  0  0  0  0  0  0  0  0  0  0  0
   -4.9441    1.8651    0.8361 C   0  0  0  0  0  0  0  0  0  0  0  0
   -3.7906    0.8981    0.8728 C   0  0  0  0  0  0  0  0  0  0  0  0
   -3.7169   -0.1035    1.5602 O   0  0  0  0  0  0  0  0  0  0  0  0
    1.0339   -0.8344    1.9142 C   0  0  0  0  0  0  0  0  0  0  0  0
    0.7982   -1.9430    2.5406 N   0  0  0  0  0  0  0  0  0  0  0  0
    1.5217   -2.3185    3.5906 C   0  0  0  0  0  0  0  0  0  0  0  0
    2.1575   -2.6615    4.4985 N   0  0  0  0  0  0  0  0  0  0  0  0
    2.0212    0.1224    2.0774 N   0  0  0  0  0  0  0  0  0  0  0  0
    3.3792   -0.1262    2.5573 C   0  0  0  0  0  0  0  0  0  0  0  0
    4.1603   -1.0925    1.6541 C   0  0  0  0  0  0  0  0  0  0  0  0
    4.3120   -0.6034    0.2275 C   0  0  0  0  0  0  0  0  0  0  0  0
    3.4432   -1.1122   -0.7554 C   0  0  0  0  0  0  0  0  0  0  0  0
    3.5267   -0.6822   -2.0805 C   0  0  0  0  0  0  0  0  0  0  0  0
    4.4803    0.2625   -2.4471 C   0  0  0  0  0  0  0  0  0  0  0  0
    5.3500    0.7779   -1.4867 C   0  0  0  0  0  0  0  0  0  0  0  0
    5.2680    0.3499   -0.1574 C   0  0  0  0  0  0  0  0  0  0  0  0
    6.3786    1.0386    0.9722 Cl  0  0  0  0  0  0  0  0  0  0  0  0
   -4.6931   -1.7398   -3.8372 H   0  0  0  0  0  0  0  0  0  0  0  0
   -3.4548    0.1341   -2.4471 H   0  0  0  0  0  0  0  0  0  0  0  0
   -0.0564    1.6682    1.0546 H   0  0  0  0  0  0  0  0  0  0  0  0
   -1.2155    0.6681    1.9515 H   0  0  0  0  0  0  0  0  0  0  0  0
   -1.0369    1.2208   -1.0567 H   0  0  0  0  0  0  0  0  0  0  0  0
   -2.3176    3.2774   -0.6035 H   0  0  0  0  0  0  0  0  0  0  0  0
   -3.5171    2.4569   -1.6475 H   0  0  0  0  0  0  0  0  0  0  0  0
   -5.0064    3.7664   -0.2584 H   0  0  0  0  0  0  0  0  0  0  0  0
   -3.8708    3.7114    1.0973 H   0  0  0  0  0  0  0  0  0  0  0  0
   -5.7174    1.4725    0.1691 H   0  0  0  0  0  0  0  0  0  0  0  0
   -5.3514    2.0314    1.8360 H   0  0  0  0  0  0  0  0  0  0  0  0
    2.0667    0.7053    1.2460 H   0  0  0  0  0  0  0  0  0  0  0  0
    3.3692   -0.4834    3.5895 H   0  0  0  0  0  0  0  0  0  0  0  0
    3.8908    0.8422    2.5951 H   0  0  0  0  0  0  0  0  0  0  0  0
    3.6750   -2.0762    1.6451 H   0  0  0  0  0  0  0  0  0  0  0  0
    5.1527   -1.2738    2.0841 H   0  0  0  0  0  0  0  0  0  0  0  0
    2.6863   -1.8523   -0.4919 H   0  0  0  0  0  0  0  0  0  0  0  0
    2.8483   -1.0934   -2.8245 H   0  0  0  0  0  0  0  0  0  0  0  0
    4.5519    0.5925   -3.4803 H   0  0  0  0  0  0  0  0  0  0  0  0
    6.0961    1.5118   -1.7817 H   0  0  0  0  0  0  0  0  0  0  0  0
  1  2  1  0
  2  3  2  0
  3  4  1  0
  4  5  2  0
  5  6  1  0
  5  7  1  0
  7  8  2  0
  8  9  1  0
  9 10  1  0
 10 11  1  0
 11 12  1  0
 12 13  1  0
 13 14  1  0
 14 15  1  0
 15 16  1  0
 16 17  2  0
  9 18  1  0
 18 19  2  0
 19 20  1  0
 20 21  3  0
 18 22  1  0
 22 23  1  0
 23 24  1  0
 24 25  1  0
 25 26  2  0
 26 27  1  0
 27 28  2  0
 28 29  1  0
 29 30  2  0
 30 31  1  0
  6  2  1  0
 11  7  1  0
 16 12  1  0
 30 25  1  0
  3 32  1  0
  4 33  1  0
 10 34  1  0
 10 35  1  0
 11 36  1  0
 13 37  1  0
 13 38  1  0
 14 39  1  0
 14 40  1  0
 15 41  1  0
 15 42  1  0
 22 43  1  0
 23 44  1  0
 23 45  1  0
 24 46  1  0
 24 47  1  0
 26 48  1  0
 27 49  1  0
 28 50  1  0
 29 51  1  0
M  END
>  <Unnamed: 0>  (61) 
423

>  <ID>  (61) 
TRAIN_0423

>  <Canonical_Smiles>  (61) 
Clc1ccc(s1)C2=NN(CC2N3CCCC3=O)\C(=N\C#N)\NCCc4ccccc4Cl

>  <Inhibition>  (61) 
56.3

>  <TDC_conf_true_inhibitor>  (61) 
1

>  <TDC_conf_non_inhibitor>  (61) 
0

>  <split>  (61) 
1

$$$$
61
     RDKit          3D

 33 34  0  0  0  0  0  0  0  0999 V2000
    3.7337    1.2408   -2.8260 C   0  0  0  0  0  0  0  0  0  0  0  0
    3.5466   -0.0868   -2.1191 C   0  0  0  0  0  0  0  0  0  0  0  0
    2.5439    0.0744   -1.1181 O   0  0  0  0  0  0  0  0  0  0  0  0
    2.2958   -1.1438   -0.4170 C   0  0  0  0  0  0  0  0  0  0  0  0
    1.2579   -0.8723    0.6451 C   0  0  0  0  0  0  0  0  0  0  0  0
    1.4660   -1.0002    1.9747 C   0  0  0  0  0  0  0  0  0  0  0  0
    2.7095   -1.4057    2.5298 C   0  0  0  0  0  0  0  0  0  0  0  0
    3.7477   -1.7560    2.9143 N   0  0  0  0  0  0  0  0  0  0  0  0
    0.3431   -0.7088    2.9167 C   0  0  0  0  0  0  0  0  0  0  0  0
    0.4624   -0.8052    4.1339 O   0  0  0  0  0  0  0  0  0  0  0  0
   -0.8493   -0.3299    2.3507 N   0  0  0  0  0  0  0  0  0  0  0  0
   -1.0560   -0.1916    1.0025 C   0  0  0  0  0  0  0  0  0  0  0  0
   -0.0514   -0.4535    0.1526 C   0  0  0  0  0  0  0  0  0  0  0  0
   -2.3851    0.2340    0.5376 C   0  0  0  0  0  0  0  0  0  0  0  0
   -3.5294   -0.4822    0.9172 C   0  0  0  0  0  0  0  0  0  0  0  0
   -4.7948   -0.0769    0.4866 C   0  0  0  0  0  0  0  0  0  0  0  0
   -4.9286    1.0487   -0.3241 C   0  0  0  0  0  0  0  0  0  0  0  0
   -3.7990    1.7705   -0.7052 C   0  0  0  0  0  0  0  0  0  0  0  0
   -2.5328    1.3661   -0.2762 C   0  0  0  0  0  0  0  0  0  0  0  0
    2.7943    1.5704   -3.2820 H   0  0  0  0  0  0  0  0  0  0  0  0
    4.4968    1.1637   -3.6055 H   0  0  0  0  0  0  0  0  0  0  0  0
    4.0322    2.0178   -2.1145 H   0  0  0  0  0  0  0  0  0  0  0  0
    4.4884   -0.3963   -1.6531 H   0  0  0  0  0  0  0  0  0  0  0  0
    3.2322   -0.8510   -2.8383 H   0  0  0  0  0  0  0  0  0  0  0  0
    3.2367   -1.5157    0.0008 H   0  0  0  0  0  0  0  0  0  0  0  0
    1.9197   -1.9004   -1.1171 H   0  0  0  0  0  0  0  0  0  0  0  0
   -1.5976   -0.1120    2.9982 H   0  0  0  0  0  0  0  0  0  0  0  0
   -0.1825   -0.3533   -0.9226 H   0  0  0  0  0  0  0  0  0  0  0  0
   -3.4436   -1.3688    1.5419 H   0  0  0  0  0  0  0  0  0  0  0  0
   -5.6760   -0.6408    0.7826 H   0  0  0  0  0  0  0  0  0  0  0  0
   -5.9138    1.3644   -0.6582 H   0  0  0  0  0  0  0  0  0  0  0  0
   -3.9033    2.6512   -1.3340 H   0  0  0  0  0  0  0  0  0  0  0  0
   -1.6635    1.9489   -0.5742 H   0  0  0  0  0  0  0  0  0  0  0  0
  1  2  1  0
  2  3  1  0
  3  4  1  0
  4  5  1  0
  5  6  2  0
  6  7  1  0
  7  8  3  0
  6  9  1  0
  9 10  2  0
  9 11  1  0
 11 12  1  0
 12 13  2  0
 12 14  1  0
 14 15  2  0
 15 16  1  0
 16 17  2  0
 17 18  1  0
 18 19  2  0
 13  5  1  0
 19 14  1  0
  1 20  1  0
  1 21  1  0
  1 22  1  0
  2 23  1  0
  2 24  1  0
  4 25  1  0
  4 26  1  0
 11 27  1  0
 13 28  1  0
 15 29  1  0
 16 30  1  0
 17 31  1  0
 18 32  1  0
 19 33  1  0
M  END
>  <Unnamed: 0>  (62) 
425

>  <ID>  (62) 
TRAIN_0425

>  <Canonical_Smiles>  (62) 
CCOCC1=C(C#N)C(=O)NC(=C1)c2ccccc2

>  <Inhibition>  (62) 
29.3

>  <TDC_conf_true_inhibitor>  (62) 
0

>  <TDC_conf_non_inhibitor>  (62) 
1

>  <split>  (62) 
1

$$$$
62
     RDKit          3D

 30 32  0  0  0  0  0  0  0  0999 V2000
    1.6956   -2.4092   -0.1584 O   0  0  0  0  0  0  0  0  0  0  0  0
    1.7990   -0.9828   -0.2295 C   0  0  0  0  0  0  0  0  0  0  0  0
    0.5520   -0.4513   -0.9141 C   0  0  0  0  0  0  0  0  0  0  0  0
    0.6483    0.2519   -2.1196 C   0  0  0  0  0  0  0  0  0  0  0  0
   -0.5018    0.7345   -2.7551 C   0  0  0  0  0  0  0  0  0  0  0  0
   -1.7689    0.5352   -2.2273 C   0  0  0  0  0  0  0  0  0  0  0  0
   -2.8416    1.0177   -2.8788 N   0  0  0  0  0  0  0  0  0  0  0  0
   -4.0607    0.8056   -2.3360 C   0  0  0  0  0  0  0  0  0  0  0  0
   -4.2700    0.1212   -1.1541 C   0  0  0  0  0  0  0  0  0  0  0  0
   -3.1592   -0.3778   -0.4850 C   0  0  0  0  0  0  0  0  0  0  0  0
   -1.8779   -0.1771   -1.0156 C   0  0  0  0  0  0  0  0  0  0  0  0
   -0.7252   -0.6652   -0.3723 C   0  0  0  0  0  0  0  0  0  0  0  0
    2.0441   -0.3983    1.1442 C   0  0  0  0  0  0  0  0  0  0  0  0
    1.6814   -1.1096    2.2870 C   0  0  0  0  0  0  0  0  0  0  0  0
    1.8247   -0.6591    3.5539 N   0  0  0  0  0  0  0  0  0  0  0  0
    2.3679    0.5667    3.7059 C   0  0  0  0  0  0  0  0  0  0  0  0
    2.7745    1.3663    2.6509 C   0  0  0  0  0  0  0  0  0  0  0  0
    3.5214    3.0614    3.0542 Br  0  0  0  0  0  0  0  0  0  0  0  0
    2.6082    0.8740    1.3507 C   0  0  0  0  0  0  0  0  0  0  0  0
    3.1104    1.8287   -0.0108 Cl  0  0  0  0  0  0  0  0  0  0  0  0
    1.2653   -2.7028   -0.9808 H   0  0  0  0  0  0  0  0  0  0  0  0
    2.6805   -0.8018   -0.8552 H   0  0  0  0  0  0  0  0  0  0  0  0
    1.6166    0.4411   -2.5796 H   0  0  0  0  0  0  0  0  0  0  0  0
   -0.4064    1.2842   -3.6891 H   0  0  0  0  0  0  0  0  0  0  0  0
   -4.8936    1.2170   -2.8994 H   0  0  0  0  0  0  0  0  0  0  0  0
   -5.2712   -0.0196   -0.7634 H   0  0  0  0  0  0  0  0  0  0  0  0
   -3.2967   -0.9188    0.4476 H   0  0  0  0  0  0  0  0  0  0  0  0
   -0.8283   -1.2197    0.5592 H   0  0  0  0  0  0  0  0  0  0  0  0
    1.2433   -2.1039    2.2178 H   0  0  0  0  0  0  0  0  0  0  0  0
    2.4684    0.8914    4.7383 H   0  0  0  0  0  0  0  0  0  0  0  0
  1  2  1  0
  2  3  1  0
  3  4  2  0
  4  5  1  0
  5  6  2  0
  6  7  1  0
  7  8  2  0
  8  9  1  0
  9 10  2  0
 10 11  1  0
 11 12  2  0
  2 13  1  0
 13 14  2  0
 14 15  1  0
 15 16  2  0
 16 17  1  0
 17 18  1  0
 17 19  2  0
 19 20  1  0
 12  3  1  0
 11  6  1  0
 19 13  1  0
  1 21  1  0
  2 22  1  0
  4 23  1  0
  5 24  1  0
  8 25  1  0
  9 26  1  0
 10 27  1  0
 12 28  1  0
 14 29  1  0
 16 30  1  0
M  END
>  <Unnamed: 0>  (63) 
427

>  <ID>  (63) 
TRAIN_0427

>  <Canonical_Smiles>  (63) 
OC(c1ccc2ncccc2c1)c3cncc(Br)c3Cl

>  <Inhibition>  (63) 
52.9

>  <TDC_conf_true_inhibitor>  (63) 
1

>  <TDC_conf_non_inhibitor>  (63) 
0

>  <split>  (63) 
1

$$$$
63
     RDKit          3D

 49 52  0  0  0  0  0  0  0  0999 V2000
   -1.4238   -0.3815    2.1125 C   0  0  0  0  0  0  0  0  0  0  0  0
   -1.7200    0.0511    0.7381 N   0  0  0  0  0  0  0  0  0  0  0  0
   -3.0981   -0.1093    0.2489 C   0  0  0  0  0  0  0  0  0  0  0  0
   -3.4759   -1.4021   -0.7822 S   0  0  0  0  0  0  0  0  0  0  0  0
   -5.1213   -0.9293   -0.8966 C   0  0  0  0  0  0  0  0  0  0  0  0
   -6.1297   -1.5668   -1.6482 C   0  0  0  0  0  0  0  0  0  0  0  0
   -7.4229   -1.0414   -1.6314 C   0  0  0  0  0  0  0  0  0  0  0  0
   -7.7033    0.0919   -0.8849 C   0  0  0  0  0  0  0  0  0  0  0  0
   -9.3016    0.7314   -0.8730 Cl  0  0  0  0  0  0  0  0  0  0  0  0
   -6.7037    0.7227   -0.1395 C   0  0  0  0  0  0  0  0  0  0  0  0
   -5.3777    0.2126   -0.1309 C   0  0  0  0  0  0  0  0  0  0  0  0
   -4.1855    0.6839    0.5584 C   0  0  0  0  0  0  0  0  0  0  0  0
   -4.1714    1.8894    1.4449 C   0  0  0  0  0  0  0  0  0  0  0  0
   -0.9360    1.4553    0.1786 S   0  0  0  0  0  6  0  0  0  0  0  0
   -1.3622    1.7622   -1.1710 O   0  0  0  0  0  0  0  0  0  0  0  0
   -0.9990    2.4530    1.2293 O   0  0  0  0  0  0  0  0  0  0  0  0
    0.7490    0.9005    0.0598 C   0  0  0  0  0  0  0  0  0  0  0  0
    1.7305    1.4345    0.8889 C   0  0  0  0  0  0  0  0  0  0  0  0
    3.0492    0.9756    0.7764 C   0  0  0  0  0  0  0  0  0  0  0  0
    3.4236   -0.0071   -0.1580 C   0  0  0  0  0  0  0  0  0  0  0  0
    2.4012   -0.5149   -0.9802 C   0  0  0  0  0  0  0  0  0  0  0  0
    1.0775   -0.0702   -0.8828 C   0  0  0  0  0  0  0  0  0  0  0  0
    4.7270   -0.4578   -0.2611 N   0  0  0  0  0  0  0  0  0  0  0  0
    5.2371   -1.0867   -1.4922 C   0  0  0  0  0  0  0  0  0  0  0  0
    6.7414   -0.8053   -1.6507 C   0  0  0  0  0  0  0  0  0  0  0  0
    7.5428   -1.2748   -0.5580 O   0  0  0  0  0  0  0  0  0  0  0  0
    6.8464   -1.2766    0.6958 C   0  0  0  0  0  0  0  0  0  0  0  0
    5.7265   -0.2267    0.7942 C   0  0  0  0  0  0  0  0  0  0  0  0
   -1.7758    0.3463    2.8476 H   0  0  0  0  0  0  0  0  0  0  0  0
   -0.3500   -0.5369    2.2467 H   0  0  0  0  0  0  0  0  0  0  0  0
   -1.9120   -1.3399    2.3186 H   0  0  0  0  0  0  0  0  0  0  0  0
   -5.9046   -2.4526   -2.2363 H   0  0  0  0  0  0  0  0  0  0  0  0
   -8.2044   -1.5270   -2.2104 H   0  0  0  0  0  0  0  0  0  0  0  0
   -6.9461    1.6133    0.4341 H   0  0  0  0  0  0  0  0  0  0  0  0
   -3.8901    2.7764    0.8688 H   0  0  0  0  0  0  0  0  0  0  0  0
   -5.1546    2.0701    1.8899 H   0  0  0  0  0  0  0  0  0  0  0  0
   -3.4715    1.7727    2.2756 H   0  0  0  0  0  0  0  0  0  0  0  0
    1.4919    2.2063    1.6166 H   0  0  0  0  0  0  0  0  0  0  0  0
    3.7924    1.4298    1.4264 H   0  0  0  0  0  0  0  0  0  0  0  0
    2.6152   -1.2924   -1.7090 H   0  0  0  0  0  0  0  0  0  0  0  0
    0.3163   -0.4864   -1.5392 H   0  0  0  0  0  0  0  0  0  0  0  0
    5.0642   -2.1674   -1.4329 H   0  0  0  0  0  0  0  0  0  0  0  0
    4.7297   -0.6960   -2.3817 H   0  0  0  0  0  0  0  0  0  0  0  0
    6.9164    0.2727   -1.7498 H   0  0  0  0  0  0  0  0  0  0  0  0
    7.1183   -1.2806   -2.5620 H   0  0  0  0  0  0  0  0  0  0  0  0
    7.5881   -1.1102    1.4835 H   0  0  0  0  0  0  0  0  0  0  0  0
    6.4353   -2.2825    0.8422 H   0  0  0  0  0  0  0  0  0  0  0  0
    6.1463    0.7792    0.6765 H   0  0  0  0  0  0  0  0  0  0  0  0
    5.2748   -0.3086    1.7894 H   0  0  0  0  0  0  0  0  0  0  0  0
  1  2  1  0
  2  3  1  0
  3  4  1  0
  4  5  1  0
  5  6  2  0
  6  7  1  0
  7  8  2  0
  8  9  1  0
  8 10  1  0
 10 11  2  0
 11 12  1  0
 12 13  1  0
  2 14  1  0
 14 15  2  0
 14 16  2  0
 14 17  1  0
 17 18  2  0
 18 19  1  0
 19 20  2  0
 20 21  1  0
 21 22  2  0
 20 23  1  0
 23 24  1  0
 24 25  1  0
 25 26  1  0
 26 27  1  0
 27 28  1  0
 12  3  2  0
 11  5  1  0
 22 17  1  0
 28 23  1  0
  1 29  1  0
  1 30  1  0
  1 31  1  0
  6 32  1  0
  7 33  1  0
 10 34  1  0
 13 35  1  0
 13 36  1  0
 13 37  1  0
 18 38  1  0
 19 39  1  0
 21 40  1  0
 22 41  1  0
 24 42  1  0
 24 43  1  0
 25 44  1  0
 25 45  1  0
 27 46  1  0
 27 47  1  0
 28 48  1  0
 28 49  1  0
M  END
>  <Unnamed: 0>  (64) 
453

>  <ID>  (64) 
TRAIN_0453

>  <Canonical_Smiles>  (64) 
CN(c1sc2ccc(Cl)cc2c1C)S(=O)(=O)c3ccc(cc3)N4CCOCC4

>  <Inhibition>  (64) 
64.6

>  <TDC_conf_true_inhibitor>  (64) 
1

>  <TDC_conf_non_inhibitor>  (64) 
0

>  <split>  (64) 
1

$$$$
64
     RDKit          3D

 52 55  0  0  0  0  0  0  0  0999 V2000
   -3.8713    3.4682    1.4496 C   0  0  0  0  0  0  0  0  0  0  0  0
   -4.0745    2.3898    0.5136 N   0  0  0  0  0  0  0  0  0  0  0  0
   -3.5269    1.1445    0.7449 C   0  0  0  0  0  0  0  0  0  0  0  0
   -2.8933    0.8653    1.7595 O   0  0  0  0  0  0  0  0  0  0  0  0
   -3.6798    0.1290   -0.3409 C   0  0  0  0  0  0  0  0  0  0  0  0
   -4.8197    0.1704   -1.1568 C   0  0  0  0  0  0  0  0  0  0  0  0
   -4.9555   -0.7418   -2.1945 C   0  0  0  0  0  0  0  0  0  0  0  0
   -6.3446   -0.6795   -3.2074 Cl  0  0  0  0  0  0  0  0  0  0  0  0
   -3.9863   -1.7174   -2.4074 C   0  0  0  0  0  0  0  0  0  0  0  0
   -2.8547   -1.8106   -1.5734 C   0  0  0  0  0  0  0  0  0  0  0  0
   -1.9276   -2.9720   -1.8174 C   0  0  0  0  0  0  0  0  0  0  0  0
   -2.6754   -0.8522   -0.5523 C   0  0  0  0  0  0  0  0  0  0  0  0
   -1.5535   -0.8617    0.3193 N   0  0  0  0  0  0  0  0  0  0  0  0
   -0.2332   -0.9563   -0.0914 C   0  0  0  0  0  0  0  0  0  0  0  0
    0.1335   -1.0698   -1.2579 O   0  0  0  0  0  0  0  0  0  0  0  0
    0.7582   -0.8963    1.0697 C   0  0  0  0  0  0  0  0  0  0  0  0
    1.7974    0.1500    0.8284 C   0  0  0  0  0  0  0  0  0  0  0  0
    1.7042    1.5144    1.0024 C   0  0  0  0  0  0  0  0  0  0  0  0
    0.5539    2.2248    1.3456 C   0  0  0  0  0  0  0  0  0  0  0  0
    0.8149    3.6049    1.4727 C   0  0  0  0  0  0  0  0  0  0  0  0
    2.1031    4.1896    1.2825 C   0  0  0  0  0  0  0  0  0  0  0  0
    3.2519    3.4402    0.9517 C   0  0  0  0  0  0  0  0  0  0  0  0
    3.0137    2.0621    0.8173 C   0  0  0  0  0  0  0  0  0  0  0  0
    3.8703    1.0742    0.5517 N   0  0  0  0  0  0  0  0  0  0  0  0
    3.1275   -0.0700    0.4561 N   0  0  0  0  0  0  0  0  0  0  0  0
    3.8079   -1.2650    0.0523 C   0  0  0  0  0  0  0  0  0  0  0  0
    3.1456   -2.3749   -0.4805 C   0  0  0  0  0  0  0  0  0  0  0  0
    3.8621   -3.5172   -0.8579 C   0  0  0  0  0  0  0  0  0  0  0  0
    5.2467   -3.5597   -0.7184 C   0  0  0  0  0  0  0  0  0  0  0  0
    5.9230   -2.4532   -0.2157 C   0  0  0  0  0  0  0  0  0  0  0  0
    5.2109   -1.3107    0.1590 C   0  0  0  0  0  0  0  0  0  0  0  0
   -2.8593    3.8599    1.3173 H   0  0  0  0  0  0  0  0  0  0  0  0
   -4.6027    4.2522    1.2407 H   0  0  0  0  0  0  0  0  0  0  0  0
   -3.9913    3.1082    2.4749 H   0  0  0  0  0  0  0  0  0  0  0  0
   -4.3366    2.6408   -0.4312 H   0  0  0  0  0  0  0  0  0  0  0  0
   -5.6088    0.8957   -0.9807 H   0  0  0  0  0  0  0  0  0  0  0  0
   -4.1223   -2.4369   -3.2137 H   0  0  0  0  0  0  0  0  0  0  0  0
   -2.4940   -3.8488   -2.1525 H   0  0  0  0  0  0  0  0  0  0  0  0
   -1.1988   -2.7242   -2.5942 H   0  0  0  0  0  0  0  0  0  0  0  0
   -1.4113   -3.2818   -0.9042 H   0  0  0  0  0  0  0  0  0  0  0  0
   -1.6944   -0.3293    1.1826 H   0  0  0  0  0  0  0  0  0  0  0  0
    0.2303   -0.6561    2.0014 H   0  0  0  0  0  0  0  0  0  0  0  0
    1.1753   -1.8921    1.2354 H   0  0  0  0  0  0  0  0  0  0  0  0
   -0.4295    1.8076    1.5058 H   0  0  0  0  0  0  0  0  0  0  0  0
   -0.0125    4.2642    1.7368 H   0  0  0  0  0  0  0  0  0  0  0  0
    2.2059    5.2675    1.4061 H   0  0  0  0  0  0  0  0  0  0  0  0
    4.2307    3.8791    0.8200 H   0  0  0  0  0  0  0  0  0  0  0  0
    2.0828   -2.3770   -0.6809 H   0  0  0  0  0  0  0  0  0  0  0  0
    3.3348   -4.3685   -1.2820 H   0  0  0  0  0  0  0  0  0  0  0  0
    5.7988   -4.4466   -1.0177 H   0  0  0  0  0  0  0  0  0  0  0  0
    7.0052   -2.4722   -0.1174 H   0  0  0  0  0  0  0  0  0  0  0  0
    5.7689   -0.4607    0.5494 H   0  0  0  0  0  0  0  0  0  0  0  0
  1  2  1  0
  2  3  1  0
  3  4  2  0
  3  5  1  0
  5  6  2  0
  6  7  1  0
  7  8  1  0
  7  9  2  0
  9 10  1  0
 10 11  1  0
 10 12  2  0
 12 13  1  0
 13 14  1  0
 14 15  2  0
 14 16  1  0
 16 17  1  0
 17 18  2  0
 18 19  1  0
 19 20  2  0
 20 21  1  0
 21 22  2  0
 22 23  1  0
 23 24  2  0
 24 25  1  0
 25 26  1  0
 26 27  2  0
 27 28  1  0
 28 29  2  0
 29 30  1  0
 30 31  2  0
 12  5  1  0
 25 17  1  0
 23 18  1  0
 31 26  1  0
  1 32  1  0
  1 33  1  0
  1 34  1  0
  2 35  1  0
  6 36  1  0
  9 37  1  0
 11 38  1  0
 11 39  1  0
 11 40  1  0
 13 41  1  0
 16 42  1  0
 16 43  1  0
 19 44  1  0
 20 45  1  0
 21 46  1  0
 22 47  1  0
 27 48  1  0
 28 49  1  0
 29 50  1  0
 30 51  1  0
 31 52  1  0
M  END
>  <Unnamed: 0>  (65) 
481

>  <ID>  (65) 
TRAIN_0481

>  <Canonical_Smiles>  (65) 
CNC(=O)c1cc(Cl)cc(C)c1NC(=O)Cc2c3ccccc3nn2c4ccccc4

>  <Inhibition>  (65) 
38.6

>  <TDC_conf_true_inhibitor>  (65) 
1

>  <TDC_conf_non_inhibitor>  (65) 
0

>  <split>  (65) 
1

$$$$
65
     RDKit          3D

 43 46  0  0  0  0  0  0  0  0999 V2000
    4.5684   -2.0423   -3.4364 O   0  0  0  0  0  0  0  0  0  0  0  0
    3.7528   -1.5715   -2.4506 C   0  0  0  0  0  0  0  0  0  0  0  0
    3.5332   -0.2017   -2.3903 C   0  0  0  0  0  0  0  0  0  0  0  0
    2.7059    0.3263   -1.3971 C   0  0  0  0  0  0  0  0  0  0  0  0
    2.0968   -0.5170   -0.4550 C   0  0  0  0  0  0  0  0  0  0  0  0
    2.3257   -1.9009   -0.5414 C   0  0  0  0  0  0  0  0  0  0  0  0
    3.1551   -2.4282   -1.5339 C   0  0  0  0  0  0  0  0  0  0  0  0
    1.1547    0.0118    0.6094 C   0  0  2  0  0  0  0  0  0  0  0  0
   -0.2830    0.2618    0.0500 C   0  0  1  0  0  0  0  0  0  0  0  0
   -1.2446   -0.8275    0.4948 C   0  0  0  0  0  0  0  0  0  0  0  0
   -1.6606   -0.9492    1.8315 C   0  0  0  0  0  0  0  0  0  0  0  0
   -2.5200   -1.9776    2.2093 C   0  0  0  0  0  0  0  0  0  0  0  0
   -2.8875   -2.0456    3.5213 O   0  0  0  0  0  0  0  0  0  0  0  0
   -2.9814   -2.9016    1.2802 C   0  0  0  0  0  0  0  0  0  0  0  0
   -2.5720   -2.7849   -0.0422 C   0  0  0  0  0  0  0  0  0  0  0  0
   -3.0404   -3.7059   -0.9336 O   0  0  0  0  0  0  0  0  0  0  0  0
   -1.7105   -1.7647   -0.4426 C   0  0  0  0  0  0  0  0  0  0  0  0
   -0.6228    1.6561    0.5140 C   0  0  0  0  0  0  0  0  0  0  0  0
   -1.7852    2.3793    0.3108 C   0  0  0  0  0  0  0  0  0  0  0  0
   -2.8048    1.8139   -0.3902 O   0  0  0  0  0  0  0  0  0  0  0  0
   -1.8847    3.6799    0.8087 C   0  0  0  0  0  0  0  0  0  0  0  0
   -0.8031    4.2514    1.4907 C   0  0  0  0  0  0  0  0  0  0  0  0
   -0.9537    5.5271    1.9508 O   0  0  0  0  0  0  0  0  0  0  0  0
    0.3822    3.5522    1.6825 C   0  0  0  0  0  0  0  0  0  0  0  0
    0.4358    2.2630    1.1791 C   0  0  0  0  0  0  0  0  0  0  0  0
    1.5597    1.3395    1.2227 C   0  0  0  0  0  0  0  0  0  0  0  0
    2.6382    1.6381    1.7076 O   0  0  0  0  0  0  0  0  0  0  0  0
    4.6759   -2.9999   -3.3165 H   0  0  0  0  0  0  0  0  0  0  0  0
    4.0085    0.4564   -3.1122 H   0  0  0  0  0  0  0  0  0  0  0  0
    2.5519    1.4027   -1.3691 H   0  0  0  0  0  0  0  0  0  0  0  0
    1.8571   -2.5803    0.1689 H   0  0  0  0  0  0  0  0  0  0  0  0
    3.3187   -3.5003   -1.5743 H   0  0  0  0  0  0  0  0  0  0  0  0
    1.1377   -0.6954    1.4508 H   0  0  0  0  0  0  0  0  0  0  0  0
   -0.2638    0.2979   -1.0485 H   0  0  0  0  0  0  0  0  0  0  0  0
   -1.3233   -0.2464    2.5894 H   0  0  0  0  0  0  0  0  0  0  0  0
   -3.4959   -2.7954    3.6305 H   0  0  0  0  0  0  0  0  0  0  0  0
   -3.6508   -3.7068    1.5620 H   0  0  0  0  0  0  0  0  0  0  0  0
   -2.7134   -3.4736   -1.8186 H   0  0  0  0  0  0  0  0  0  0  0  0
   -1.3959   -1.6891   -1.4802 H   0  0  0  0  0  0  0  0  0  0  0  0
   -3.5754    2.4058   -0.3588 H   0  0  0  0  0  0  0  0  0  0  0  0
   -2.7862    4.2688    0.6677 H   0  0  0  0  0  0  0  0  0  0  0  0
   -0.1377    5.7968    2.4062 H   0  0  0  0  0  0  0  0  0  0  0  0
    1.2384    3.9768    2.1943 H   0  0  0  0  0  0  0  0  0  0  0  0
  1  2  1  0
  2  3  2  0
  3  4  1  0
  4  5  2  0
  5  6  1  0
  6  7  2  0
  5  8  1  0
  8  9  1  0
  9 10  1  0
 10 11  2  0
 11 12  1  0
 12 13  1  0
 12 14  2  0
 14 15  1  0
 15 16  1  0
 15 17  2  0
  9 18  1  0
 18 19  2  0
 19 20  1  0
 19 21  1  0
 21 22  2  0
 22 23  1  0
 22 24  1  0
 24 25  2  0
 25 26  1  0
 26 27  2  0
  7  2  1  0
 26  8  1  0
 17 10  1  0
 25 18  1  0
  1 28  1  0
  3 29  1  0
  4 30  1  0
  6 31  1  0
  7 32  1  0
  8 33  1  1
  9 34  1  6
 11 35  1  0
 13 36  1  0
 14 37  1  0
 16 38  1  0
 17 39  1  0
 20 40  1  0
 21 41  1  0
 23 42  1  0
 24 43  1  0
M  END
>  <Unnamed: 0>  (66) 
492

>  <ID>  (66) 
TRAIN_0492

>  <Canonical_Smiles>  (66) 
Oc1ccc(cc1)[C@@H]2[C@@H](c3cc(O)cc(O)c3)c4c(O)cc(O)cc4C2=O

>  <Inhibition>  (66) 
61.3

>  <TDC_conf_true_inhibitor>  (66) 
1

>  <TDC_conf_non_inhibitor>  (66) 
0

>  <split>  (66) 
1

$$$$
66
     RDKit          3D

 44 46  0  0  0  0  0  0  0  0999 V2000
   -1.0941   -2.8811   -2.2364 C   0  0  0  0  0  0  0  0  0  0  0  0
   -2.3278   -2.6537   -1.3838 C   0  0  0  0  0  0  0  0  0  0  0  0
   -2.4177   -1.2768   -0.9879 O   0  0  0  0  0  0  0  0  0  0  0  0
   -1.7355   -0.9388    0.1390 C   0  0  0  0  0  0  0  0  0  0  0  0
   -1.0263   -1.6878    0.7924 O   0  0  0  0  0  0  0  0  0  0  0  0
   -2.0037    0.4685    0.4503 C   0  0  0  0  0  0  0  0  0  0  0  0
   -1.0295    1.2311    0.9860 C   0  0  0  0  0  0  0  0  0  0  0  0
   -1.1521    2.8052    1.7595 S   0  0  0  0  0  0  0  0  0  0  0  0
    0.3640    1.9955    2.2994 C   0  0  0  0  0  0  0  0  0  0  0  0
    0.2699    1.1435    1.1547 N   0  0  0  0  0  0  0  0  0  0  0  0
    1.3061    0.4270    0.5221 C   0  0  0  0  0  0  0  0  0  0  0  0
    1.2207    0.0543   -0.8299 C   0  0  0  0  0  0  0  0  0  0  0  0
    2.2653   -0.6272   -1.4635 C   0  0  0  0  0  0  0  0  0  0  0  0
    3.4197   -0.9379   -0.7549 C   0  0  0  0  0  0  0  0  0  0  0  0
    4.4111   -1.5890   -1.4418 O   0  0  0  0  0  0  0  0  0  0  0  0
    5.6508   -1.5576   -0.7252 C   0  0  0  0  0  0  0  0  0  0  0  0
    5.4326   -1.8819    0.7435 C   0  0  0  0  0  0  0  0  0  0  0  0
    4.6164   -0.8818    1.3644 O   0  0  0  0  0  0  0  0  0  0  0  0
    3.5211   -0.5863    0.5919 C   0  0  0  0  0  0  0  0  0  0  0  0
    2.4835    0.1084    1.2169 C   0  0  0  0  0  0  0  0  0  0  0  0
   -3.3750    0.9777    0.3733 C   0  0  0  0  0  0  0  0  0  0  0  0
   -4.3406    0.3926    0.8429 O   0  0  0  0  0  0  0  0  0  0  0  0
   -3.4199    2.1301   -0.3445 O   0  0  0  0  0  0  0  0  0  0  0  0
   -4.7310    2.6903   -0.4788 C   0  0  0  0  0  0  0  0  0  0  0  0
   -4.6126    3.9878   -1.2540 C   0  0  0  0  0  0  0  0  0  0  0  0
   -0.1816   -2.7102   -1.6578 H   0  0  0  0  0  0  0  0  0  0  0  0
   -1.0737   -2.1844   -3.0807 H   0  0  0  0  0  0  0  0  0  0  0  0
   -1.0723   -3.9048   -2.6206 H   0  0  0  0  0  0  0  0  0  0  0  0
   -2.3426   -3.3190   -0.5127 H   0  0  0  0  0  0  0  0  0  0  0  0
   -3.2252   -2.8739   -1.9712 H   0  0  0  0  0  0  0  0  0  0  0  0
    0.3125    1.4484    3.2478 H   0  0  0  0  0  0  0  0  0  0  0  0
    1.2521    2.6352    2.2933 H   0  0  0  0  0  0  0  0  0  0  0  0
    0.3485    0.3179   -1.4216 H   0  0  0  0  0  0  0  0  0  0  0  0
    2.1807   -0.8993   -2.5117 H   0  0  0  0  0  0  0  0  0  0  0  0
    6.3162   -2.2972   -1.1813 H   0  0  0  0  0  0  0  0  0  0  0  0
    6.1020   -0.5659   -0.8542 H   0  0  0  0  0  0  0  0  0  0  0  0
    4.9485   -2.8580    0.8726 H   0  0  0  0  0  0  0  0  0  0  0  0
    6.3904   -1.9035    1.2727 H   0  0  0  0  0  0  0  0  0  0  0  0
    2.5953    0.3691    2.2652 H   0  0  0  0  0  0  0  0  0  0  0  0
   -5.3763    1.9911   -1.0221 H   0  0  0  0  0  0  0  0  0  0  0  0
   -5.1534    2.8891    0.5127 H   0  0  0  0  0  0  0  0  0  0  0  0
   -5.5924    4.4557   -1.3839 H   0  0  0  0  0  0  0  0  0  0  0  0
   -3.9519    4.6888   -0.7331 H   0  0  0  0  0  0  0  0  0  0  0  0
   -4.1723    3.8087   -2.2405 H   0  0  0  0  0  0  0  0  0  0  0  0
  1  2  1  0
  2  3  1  0
  3  4  1  0
  4  5  2  0
  4  6  1  0
  6  7  2  3
  7  8  1  0
  8  9  1  0
  9 10  1  0
 10 11  1  0
 11 12  2  0
 12 13  1  0
 13 14  2  0
 14 15  1  0
 15 16  1  0
 16 17  1  0
 17 18  1  0
 18 19  1  0
 19 20  2  0
  6 21  1  0
 21 22  2  0
 21 23  1  0
 23 24  1  0
 24 25  1  0
 10  7  1  0
 20 11  1  0
 19 14  1  0
  1 26  1  0
  1 27  1  0
  1 28  1  0
  2 29  1  0
  2 30  1  0
  9 31  1  0
  9 32  1  0
 12 33  1  0
 13 34  1  0
 16 35  1  0
 16 36  1  0
 17 37  1  0
 17 38  1  0
 20 39  1  0
 24 40  1  0
 24 41  1  0
 25 42  1  0
 25 43  1  0
 25 44  1  0
M  END
>  <Unnamed: 0>  (67) 
494

>  <ID>  (67) 
TRAIN_0494

>  <Canonical_Smiles>  (67) 
CCOC(=O)C(=C1SCN1c2ccc3OCCOc3c2)C(=O)OCC

>  <Inhibition>  (67) 
83.5

>  <TDC_conf_true_inhibitor>  (67) 
1

>  <TDC_conf_non_inhibitor>  (67) 
0

>  <split>  (67) 
1

$$$$
67
     RDKit          3D

 71 73  0  0  0  0  0  0  0  0999 V2000
   -3.7031   -4.0297   -1.9037 C   0  0  0  0  0  0  0  0  0  0  0  0
   -3.2080   -3.5726   -0.5223 C   0  0  0  0  0  0  0  0  0  0  0  0
   -4.4137   -3.4402    0.4145 C   0  0  0  0  0  0  0  0  0  0  0  0
   -2.1914   -4.5965   -0.0041 C   0  0  0  0  0  0  0  0  0  0  0  0
   -2.5881   -2.2835   -0.7646 O   0  0  0  0  0  0  0  0  0  0  0  0
   -2.0242   -1.5784    0.2443 C   0  0  0  0  0  0  0  0  0  0  0  0
   -1.9612   -1.9353    1.4115 O   0  0  0  0  0  0  0  0  0  0  0  0
   -1.4959   -0.3939   -0.2048 N   0  0  0  0  0  0  0  0  0  0  0  0
   -1.7401    0.1687   -1.5207 C   0  0  0  0  0  0  0  0  0  0  0  0
   -1.0075    1.5007   -1.5068 C   0  0  0  0  0  0  0  0  0  0  0  0
   -1.1284    1.9541   -0.0417 C   0  0  0  0  0  0  0  0  0  0  0  0
   -2.4195    2.6104    0.2012 N   0  0  0  0  0  0  0  0  0  0  0  0
   -2.6552    3.8875   -0.2792 C   0  0  0  0  0  0  0  0  0  0  0  0
   -1.8828    4.4811   -1.0256 O   0  0  0  0  0  0  0  0  0  0  0  0
   -3.9154    4.5380    0.1788 C   0  0  0  0  0  0  0  0  0  0  0  0
   -5.0801    3.7633    0.3279 C   0  0  0  0  0  0  0  0  0  0  0  0
   -6.2681    4.3599    0.7492 C   0  0  0  0  0  0  0  0  0  0  0  0
   -6.2951    5.7230    1.0348 C   0  0  0  0  0  0  0  0  0  0  0  0
   -5.1403    6.4959    0.8771 C   0  0  0  0  0  0  0  0  0  0  0  0
   -3.9513    5.9310    0.3975 C   0  0  0  0  0  0  0  0  0  0  0  0
   -2.7891    6.7304    0.3729 N   0  0  0  0  0  0  0  0  0  0  0  0
   -0.9889    0.6204    0.7285 C   0  0  0  0  0  0  0  0  0  0  0  0
    0.4897    0.4219    1.1262 C   0  0  0  0  0  0  0  0  0  0  0  0
    0.9873    1.1183    2.0092 O   0  0  0  0  0  0  0  0  0  0  0  0
    1.1587   -0.4987    0.3402 N   0  0  0  0  0  0  0  0  0  0  0  0
    2.5335   -0.7987    0.3369 C   0  0  0  0  0  0  0  0  0  0  0  0
    2.9716   -1.7985   -0.5344 C   0  0  0  0  0  0  0  0  0  0  0  0
    4.3298   -2.1415   -0.6188 C   0  0  0  0  0  0  0  0  0  0  0  0
    5.2936   -1.4935    0.1664 C   0  0  0  0  0  0  0  0  0  0  0  0
    4.8323   -0.4919    1.0407 C   0  0  0  0  0  0  0  0  0  0  0  0
    3.4756   -0.1484    1.1263 C   0  0  0  0  0  0  0  0  0  0  0  0
    6.7928   -1.8352    0.1052 C   0  0  0  0  0  0  0  0  0  0  0  0
    7.2710   -2.3185    1.4925 C   0  0  0  0  0  0  0  0  0  0  0  0
    7.1401   -2.9453   -0.9123 C   0  0  0  0  0  0  0  0  0  0  0  0
    7.5962   -0.5799   -0.3004 C   0  0  0  0  0  0  0  0  0  0  0  0
   -2.8668   -4.1173   -2.6057 H   0  0  0  0  0  0  0  0  0  0  0  0
   -4.3937   -3.2951   -2.3337 H   0  0  0  0  0  0  0  0  0  0  0  0
   -4.2123   -4.9980   -1.8528 H   0  0  0  0  0  0  0  0  0  0  0  0
   -4.1107   -3.1949    1.4376 H   0  0  0  0  0  0  0  0  0  0  0  0
   -5.0834   -2.6378    0.0801 H   0  0  0  0  0  0  0  0  0  0  0  0
   -4.9862   -4.3738    0.4605 H   0  0  0  0  0  0  0  0  0  0  0  0
   -2.6167   -5.6064    0.0204 H   0  0  0  0  0  0  0  0  0  0  0  0
   -1.2971   -4.6111   -0.6362 H   0  0  0  0  0  0  0  0  0  0  0  0
   -1.8533   -4.3616    1.0109 H   0  0  0  0  0  0  0  0  0  0  0  0
   -1.3781   -0.5076   -2.3006 H   0  0  0  0  0  0  0  0  0  0  0  0
   -2.8224    0.3044   -1.6384 H   0  0  0  0  0  0  0  0  0  0  0  0
   -1.4203    2.1985   -2.2403 H   0  0  0  0  0  0  0  0  0  0  0  0
    0.0491    1.3406   -1.7566 H   0  0  0  0  0  0  0  0  0  0  0  0
   -0.3403    2.6767    0.2052 H   0  0  0  0  0  0  0  0  0  0  0  0
   -2.9395    2.3386    1.0287 H   0  0  0  0  0  0  0  0  0  0  0  0
   -5.0760    2.7000    0.1022 H   0  0  0  0  0  0  0  0  0  0  0  0
   -7.1715    3.7642    0.8605 H   0  0  0  0  0  0  0  0  0  0  0  0
   -7.2126    6.1903    1.3865 H   0  0  0  0  0  0  0  0  0  0  0  0
   -5.1738    7.5529    1.1332 H   0  0  0  0  0  0  0  0  0  0  0  0
   -2.0741    6.3261   -0.2438 H   0  0  0  0  0  0  0  0  0  0  0  0
   -2.9670    7.7039    0.1485 H   0  0  0  0  0  0  0  0  0  0  0  0
   -1.5795    0.5991    1.6516 H   0  0  0  0  0  0  0  0  0  0  0  0
    0.5711   -1.0380   -0.2854 H   0  0  0  0  0  0  0  0  0  0  0  0
    2.2664   -2.3294   -1.1683 H   0  0  0  0  0  0  0  0  0  0  0  0
    4.6053   -2.9282   -1.3158 H   0  0  0  0  0  0  0  0  0  0  0  0
    5.5297    0.0465    1.6795 H   0  0  0  0  0  0  0  0  0  0  0  0
    3.1980    0.6385    1.8212 H   0  0  0  0  0  0  0  0  0  0  0  0
    6.7131   -3.2067    1.8147 H   0  0  0  0  0  0  0  0  0  0  0  0
    7.1461   -1.5517    2.2660 H   0  0  0  0  0  0  0  0  0  0  0  0
    8.3355   -2.5809    1.4756 H   0  0  0  0  0  0  0  0  0  0  0  0
    8.2170   -3.1539   -0.9154 H   0  0  0  0  0  0  0  0  0  0  0  0
    6.6311   -3.8862   -0.6732 H   0  0  0  0  0  0  0  0  0  0  0  0
    6.8636   -2.6583   -1.9342 H   0  0  0  0  0  0  0  0  0  0  0  0
    8.6675   -0.8043   -0.3789 H   0  0  0  0  0  0  0  0  0  0  0  0
    7.2644   -0.1967   -1.2729 H   0  0  0  0  0  0  0  0  0  0  0  0
    7.4927    0.2336    0.4269 H   0  0  0  0  0  0  0  0  0  0  0  0
  1  2  1  0
  2  3  1  0
  2  4  1  0
  2  5  1  0
  5  6  1  0
  6  7  2  0
  6  8  1  0
  8  9  1  0
  9 10  1  0
 10 11  1  0
 11 12  1  0
 12 13  1  0
 13 14  2  0
 13 15  1  0
 15 16  2  0
 16 17  1  0
 17 18  2  0
 18 19  1  0
 19 20  2  0
 20 21  1  0
 11 22  1  0
 22 23  1  0
 23 24  2  0
 23 25  1  0
 25 26  1  0
 26 27  2  0
 27 28  1  0
 28 29  2  0
 29 30  1  0
 30 31  2  0
 29 32  1  0
 32 33  1  0
 32 34  1  0
 32 35  1  0
 22  8  1  0
 20 15  1  0
 31 26  1  0
  1 36  1  0
  1 37  1  0
  1 38  1  0
  3 39  1  0
  3 40  1  0
  3 41  1  0
  4 42  1  0
  4 43  1  0
  4 44  1  0
  9 45  1  0
  9 46  1  0
 10 47  1  0
 10 48  1  0
 11 49  1  0
 12 50  1  0
 16 51  1  0
 17 52  1  0
 18 53  1  0
 19 54  1  0
 21 55  1  0
 21 56  1  0
 22 57  1  0
 25 58  1  0
 27 59  1  0
 28 60  1  0
 30 61  1  0
 31 62  1  0
 33 63  1  0
 33 64  1  0
 33 65  1  0
 34 66  1  0
 34 67  1  0
 34 68  1  0
 35 69  1  0
 35 70  1  0
 35 71  1  0
M  END
>  <Unnamed: 0>  (68) 
496

>  <ID>  (68) 
TRAIN_0496

>  <Canonical_Smiles>  (68) 
CC(C)(C)OC(=O)N1CCC(NC(=O)c2ccccc2N)C1C(=O)Nc3ccc(cc3)C(C)(C)C

>  <Inhibition>  (68) 
58.6

>  <TDC_conf_true_inhibitor>  (68) 
1

>  <TDC_conf_non_inhibitor>  (68) 
0

>  <split>  (68) 
1

$$$$
68
     RDKit          3D

 24 26  0  0  0  0  0  0  0  0999 V2000
   -5.4252    0.4481   -0.3998 F   0  0  0  0  0  0  0  0  0  0  0  0
   -4.0952    0.2994   -0.3243 C   0  0  0  0  0  0  0  0  0  0  0  0
   -3.2827    1.4003   -0.5515 C   0  0  0  0  0  0  0  0  0  0  0  0
   -1.8910    1.2654   -0.4792 C   0  0  0  0  0  0  0  0  0  0  0  0
   -1.2877    0.0299   -0.1800 C   0  0  0  0  0  0  0  0  0  0  0  0
   -2.1374   -1.0700    0.0469 C   0  0  0  0  0  0  0  0  0  0  0  0
   -3.5295   -0.9334   -0.0243 C   0  0  0  0  0  0  0  0  0  0  0  0
   -4.5262   -2.3065    0.2717 Cl  0  0  0  0  0  0  0  0  0  0  0  0
    0.1472   -0.1130   -0.1163 N   0  0  0  0  0  0  0  0  0  0  0  0
    0.7361   -1.3335   -0.4479 C   0  0  0  0  0  0  0  0  0  0  0  0
    1.9961   -1.6517   -0.4365 N   0  0  0  0  0  0  0  0  0  0  0  0
    2.8341   -0.6068   -0.0516 C   0  0  0  0  0  0  0  0  0  0  0  0
    4.2402   -0.7130    0.0199 C   0  0  0  0  0  0  0  0  0  0  0  0
    4.8038    0.4815    0.4239 C   0  0  0  0  0  0  0  0  0  0  0  0
    3.6157    1.6945    0.7042 S   0  0  0  0  0  0  0  0  0  0  0  0
    2.3630    0.6272    0.2863 C   0  0  0  0  0  0  0  0  0  0  0  0
    0.9641    0.9624    0.2952 C   0  0  0  0  0  0  0  0  0  0  0  0
    0.5465    2.0569    0.6682 O   0  0  0  0  0  0  0  0  0  0  0  0
   -3.7317    2.3609   -0.7876 H   0  0  0  0  0  0  0  0  0  0  0  0
   -1.2968    2.1517   -0.6947 H   0  0  0  0  0  0  0  0  0  0  0  0
   -1.7423   -2.0421    0.3308 H   0  0  0  0  0  0  0  0  0  0  0  0
    0.0365   -2.1103   -0.7888 H   0  0  0  0  0  0  0  0  0  0  0  0
    4.8106   -1.6040   -0.2088 H   0  0  0  0  0  0  0  0  0  0  0  0
    5.8517    0.7062    0.5699 H   0  0  0  0  0  0  0  0  0  0  0  0
  1  2  1  0
  2  3  2  0
  3  4  1  0
  4  5  2  0
  5  6  1  0
  6  7  2  0
  7  8  1  0
  5  9  1  0
  9 10  1  0
 10 11  2  0
 11 12  1  0
 12 13  1  0
 13 14  2  0
 14 15  1  0
 15 16  1  0
 16 17  1  0
 17 18  2  0
  7  2  1  0
 17  9  1  0
 16 12  2  0
  3 19  1  0
  4 20  1  0
  6 21  1  0
 10 22  1  0
 13 23  1  0
 14 24  1  0
M  END
>  <Unnamed: 0>  (69) 
502

>  <ID>  (69) 
TRAIN_0502

>  <Canonical_Smiles>  (69) 
Fc1ccc(cc1Cl)N2C=Nc3ccsc3C2=O

>  <Inhibition>  (69) 
1.94

>  <TDC_conf_true_inhibitor>  (69) 
0

>  <TDC_conf_non_inhibitor>  (69) 
1

>  <split>  (69) 
1

$$$$
69
     RDKit          3D

 24 25  0  0  0  0  0  0  0  0999 V2000
    4.1146    0.8543   -1.9620 F   0  0  0  0  0  0  0  0  0  0  0  0
    3.3043    1.4074   -1.0166 C   0  0  0  0  0  0  0  0  0  0  0  0
    4.1284    2.0450   -0.1421 F   0  0  0  0  0  0  0  0  0  0  0  0
    2.6044    2.3852   -1.6570 F   0  0  0  0  0  0  0  0  0  0  0  0
    2.4118    0.3985   -0.3385 C   0  0  0  0  0  0  0  0  0  0  0  0
    2.7811   -0.9530   -0.2612 C   0  0  0  0  0  0  0  0  0  0  0  0
    1.9668   -1.8721    0.4016 C   0  0  0  0  0  0  0  0  0  0  0  0
    0.7758   -1.4489    0.9914 C   0  0  0  0  0  0  0  0  0  0  0  0
    0.3848   -0.1106    0.9137 C   0  0  0  0  0  0  0  0  0  0  0  0
    1.2121    0.8093    0.2649 C   0  0  0  0  0  0  0  0  0  0  0  0
   -0.8057    0.3173    1.5104 N   0  0  0  0  0  0  0  0  0  0  0  0
   -1.9067    0.2494    0.8461 C   0  0  0  0  0  0  0  0  0  0  0  0
   -2.0792   -0.2029   -0.4191 N   0  0  0  0  0  0  0  0  0  0  0  0
   -3.3397   -0.1928   -0.9379 C   0  0  0  0  0  0  0  0  0  0  0  0
   -3.6043   -0.5866   -2.0664 O   0  0  0  0  0  0  0  0  0  0  0  0
   -4.3517    0.3536    0.0359 C   0  0  0  0  0  0  0  0  0  0  0  0
   -3.4174    0.7655    1.5334 S   0  0  0  0  0  0  0  0  0  0  0  0
    3.7144   -1.2934   -0.7089 H   0  0  0  0  0  0  0  0  0  0  0  0
    2.2661   -2.9155    0.4705 H   0  0  0  0  0  0  0  0  0  0  0  0
    0.1535   -2.1628    1.5255 H   0  0  0  0  0  0  0  0  0  0  0  0
    0.9191    1.8581    0.2385 H   0  0  0  0  0  0  0  0  0  0  0  0
   -1.3130   -0.5476   -0.9753 H   0  0  0  0  0  0  0  0  0  0  0  0
   -5.1024   -0.4086    0.2569 H   0  0  0  0  0  0  0  0  0  0  0  0
   -4.8171    1.2511   -0.3781 H   0  0  0  0  0  0  0  0  0  0  0  0
  1  2  1  0
  2  3  1  0
  2  4  1  0
  2  5  1  0
  5  6  2  0
  6  7  1  0
  7  8  2  0
  8  9  1  0
  9 10  2  0
  9 11  1  0
 11 12  2  0
 12 13  1  0
 13 14  1  0
 14 15  2  0
 14 16  1  0
 16 17  1  0
 10  5  1  0
 17 12  1  0
  6 18  1  0
  7 19  1  0
  8 20  1  0
 10 21  1  0
 13 22  1  0
 16 23  1  0
 16 24  1  0
M  END
>  <Unnamed: 0>  (70) 
518

>  <ID>  (70) 
TRAIN_0518

>  <Canonical_Smiles>  (70) 
FC(F)(F)c1cccc(c1)\N=C\2/NC(=O)CS2

>  <Inhibition>  (70) 
0.0

>  <TDC_conf_true_inhibitor>  (70) 
0

>  <TDC_conf_non_inhibitor>  (70) 
1

>  <split>  (70) 
1

$$$$
70
     RDKit          3D

 55 59  0  0  0  0  0  0  0  0999 V2000
   -2.8525    4.3251    2.0869 C   0  0  0  0  0  0  0  0  0  0  0  0
   -2.9571    2.9222    1.8915 O   0  0  0  0  0  0  0  0  0  0  0  0
   -2.0396    2.3406    1.0635 C   0  0  0  0  0  0  0  0  0  0  0  0
   -1.0015    2.9961    0.4013 C   0  0  0  0  0  0  0  0  0  0  0  0
   -0.0793    2.2696   -0.3719 C   0  0  0  0  0  0  0  0  0  0  0  0
   -0.1999    0.8797   -0.5357 C   0  0  0  0  0  0  0  0  0  0  0  0
    0.8803    0.0847   -1.2197 C   0  0  0  0  0  0  0  0  0  0  0  0
    1.6055   -0.7849   -0.2624 N   0  0  0  0  0  0  0  0  0  0  0  0
    3.0111   -0.9331   -0.6958 C   0  0  0  0  0  0  0  0  0  0  0  0
    3.8074    0.3623   -0.6486 C   0  0  0  0  0  0  0  0  0  0  0  0
    3.7699    1.1840    0.4900 C   0  0  0  0  0  0  0  0  0  0  0  0
    4.5121    2.3652    0.5401 C   0  0  0  0  0  0  0  0  0  0  0  0
    5.3060    2.7260   -0.5457 C   0  0  0  0  0  0  0  0  0  0  0  0
    6.3108    4.3261   -0.4823 Br  0  0  0  0  0  0  0  0  0  0  0  0
    5.3670    1.9160   -1.6781 C   0  0  0  0  0  0  0  0  0  0  0  0
    4.6227    0.7347   -1.7277 C   0  0  0  0  0  0  0  0  0  0  0  0
    0.9045   -2.0838   -0.0466 C   0  0  1  0  0  0  0  0  0  0  0  0
    1.7613   -3.1106    0.7295 C   0  0  0  0  0  0  0  0  0  0  0  0
   -0.4315   -1.9562    0.7558 C   0  0  0  0  0  0  0  0  0  0  0  0
   -1.6087   -1.2053    0.0858 C   0  0  0  0  0  0  0  0  0  0  0  0
   -1.9395   -1.8274   -1.2613 C   0  0  0  0  0  0  0  0  0  0  0  0
   -3.0400   -2.5579   -1.5000 C   0  0  0  0  0  0  0  0  0  0  0  0
   -4.1188   -2.7388   -0.4880 C   0  0  2  0  0  0  0  0  0  0  0  0
   -5.3406   -2.9071   -1.1938 O   0  0  0  0  0  0  0  0  0  0  0  0
   -4.2031   -1.5088    0.3975 C   0  0  0  0  0  0  0  0  0  0  0  0
   -2.8571   -1.1579    1.0425 C   0  0  2  0  0  0  0  0  0  0  0  0
   -3.0277    0.1793    1.5763 O   0  0  0  0  0  0  0  0  0  0  0  0
   -2.1438    0.9661    0.8830 C   0  0  0  0  0  0  0  0  0  0  0  0
   -1.2896    0.2523    0.0533 C   0  0  0  0  0  0  0  0  0  0  0  0
   -2.9900    4.8670    1.1453 H   0  0  0  0  0  0  0  0  0  0  0  0
   -1.9004    4.5885    2.5594 H   0  0  0  0  0  0  0  0  0  0  0  0
   -3.6553    4.6294    2.7654 H   0  0  0  0  0  0  0  0  0  0  0  0
   -0.8492    4.0659    0.4964 H   0  0  0  0  0  0  0  0  0  0  0  0
    0.7624    2.7995   -0.8153 H   0  0  0  0  0  0  0  0  0  0  0  0
    0.4857   -0.4803   -2.0702 H   0  0  0  0  0  0  0  0  0  0  0  0
    1.5526    0.8128   -1.6895 H   0  0  0  0  0  0  0  0  0  0  0  0
    3.0496   -1.3745   -1.7001 H   0  0  0  0  0  0  0  0  0  0  0  0
    3.5669   -1.5995   -0.0286 H   0  0  0  0  0  0  0  0  0  0  0  0
    3.1469    0.9061    1.3390 H   0  0  0  0  0  0  0  0  0  0  0  0
    4.4622    2.9909    1.4269 H   0  0  0  0  0  0  0  0  0  0  0  0
    5.9900    2.1933   -2.5242 H   0  0  0  0  0  0  0  0  0  0  0  0
    4.6817    0.1093   -2.6156 H   0  0  0  0  0  0  0  0  0  0  0  0
    0.6997   -2.5464   -1.0204 H   0  0  0  0  0  0  0  0  0  0  0  0
    2.1392   -2.6879    1.6670 H   0  0  0  0  0  0  0  0  0  0  0  0
    1.1771   -4.0039    0.9789 H   0  0  0  0  0  0  0  0  0  0  0  0
    2.6076   -3.4659    0.1328 H   0  0  0  0  0  0  0  0  0  0  0  0
   -0.2048   -1.4995    1.7313 H   0  0  0  0  0  0  0  0  0  0  0  0
   -0.7877   -2.9718    0.9837 H   0  0  0  0  0  0  0  0  0  0  0  0
   -1.2309   -1.7228   -2.0759 H   0  0  0  0  0  0  0  0  0  0  0  0
   -3.1851   -3.0178   -2.4745 H   0  0  0  0  0  0  0  0  0  0  0  0
   -3.9367   -3.6472    0.0961 H   0  0  0  0  0  0  0  0  0  0  0  0
   -6.0620   -2.8679   -0.5436 H   0  0  0  0  0  0  0  0  0  0  0  0
   -4.5830   -0.6535   -0.1811 H   0  0  0  0  0  0  0  0  0  0  0  0
   -4.9612   -1.6544    1.1785 H   0  0  0  0  0  0  0  0  0  0  0  0
   -2.7039   -1.8278    1.8989 H   0  0  0  0  0  0  0  0  0  0  0  0
  1  2  1  0
  2  3  1  0
  3  4  2  0
  4  5  1  0
  5  6  2  0
  6  7  1  0
  7  8  1  0
  8  9  1  0
  9 10  1  0
 10 11  2  0
 11 12  1  0
 12 13  2  0
 13 14  1  0
 13 15  1  0
 15 16  2  0
  8 17  1  0
 17 18  1  0
 17 19  1  0
 19 20  1  0
 20 21  1  0
 21 22  2  0
 22 23  1  0
 23 24  1  0
 23 25  1  0
 25 26  1  0
 26 27  1  0
 27 28  1  0
 28 29  2  0
 28  3  1  0
 29  6  1  0
 16 10  1  0
 26 20  1  0
 29 20  1  0
  1 30  1  0
  1 31  1  0
  1 32  1  0
  4 33  1  0
  5 34  1  0
  7 35  1  0
  7 36  1  0
  9 37  1  0
  9 38  1  0
 11 39  1  0
 12 40  1  0
 15 41  1  0
 16 42  1  0
 17 43  1  6
 18 44  1  0
 18 45  1  0
 18 46  1  0
 19 47  1  0
 19 48  1  0
 21 49  1  0
 22 50  1  0
 23 51  1  1
 24 52  1  0
 25 53  1  0
 25 54  1  0
 26 55  1  1
M  END
>  <Unnamed: 0>  (71) 
519

>  <ID>  (71) 
TRAIN_0519

>  <Canonical_Smiles>  (71) 
COc1ccc2CN(Cc3ccc(Br)cc3)[C@@H](C)CC45C=C[C@H](O)C[C@@H]4Oc1c25

>  <Inhibition>  (71) 
18.4

>  <TDC_conf_true_inhibitor>  (71) 
0

>  <TDC_conf_non_inhibitor>  (71) 
1

>  <split>  (71) 
1

$$$$
71
     RDKit          3D

 43 47  0  0  0  0  0  0  0  0999 V2000
   -5.2162    1.8802    3.2174 Cl  0  0  0  0  0  0  0  0  0  0  0  0
   -5.2123    1.5359    1.5309 C   0  0  0  0  0  0  0  0  0  0  0  0
   -6.1983    2.0824    0.7143 C   0  0  0  0  0  0  0  0  0  0  0  0
   -6.1882    1.8071   -0.6503 C   0  0  0  0  0  0  0  0  0  0  0  0
   -5.1937    0.9851   -1.1869 C   0  0  0  0  0  0  0  0  0  0  0  0
   -4.1961    0.4250   -0.3727 C   0  0  0  0  0  0  0  0  0  0  0  0
   -3.2323   -0.4083   -0.9824 N   0  0  0  0  0  0  0  0  0  0  0  0
   -2.3498   -1.2511   -0.3473 C   0  0  0  0  0  0  0  0  0  0  0  0
   -2.8148   -2.1925    0.7284 C   0  0  0  0  0  0  0  0  0  0  0  0
   -1.9240   -3.0030    1.3109 C   0  0  0  0  0  0  0  0  0  0  0  0
   -0.5842   -2.9545    0.8875 C   0  0  0  0  0  0  0  0  0  0  0  0
    0.4916   -3.6091    1.2606 N   0  0  0  0  0  0  0  0  0  0  0  0
    1.5403   -3.1610    0.4891 N   0  0  0  0  0  0  0  0  0  0  0  0
    1.0792   -2.2401   -0.3382 C   0  0  0  0  0  0  0  0  0  0  0  0
    1.8369   -1.4764   -1.3635 C   0  0  0  0  0  0  0  0  0  0  0  0
    2.6058   -0.3982   -0.7345 N   0  0  0  0  0  0  0  0  0  0  0  0
    1.9533    0.7556   -0.3279 C   0  0  0  0  0  0  0  0  0  0  0  0
    2.5933    1.7571    0.2833 C   0  0  0  0  0  0  0  0  0  0  0  0
    4.0201    1.6390    0.5431 C   0  0  0  0  0  0  0  0  0  0  0  0
    4.6048    2.6854    1.1759 N   0  0  0  0  0  0  0  0  0  0  0  0
    5.9307    2.5778    1.4233 C   0  0  0  0  0  0  0  0  0  0  0  0
    6.6996    1.4790    1.0662 C   0  0  0  0  0  0  0  0  0  0  0  0
    6.0757    0.4195    0.4133 C   0  0  0  0  0  0  0  0  0  0  0  0
    4.7091    0.5009    0.1465 C   0  0  0  0  0  0  0  0  0  0  0  0
    3.9815   -0.5846   -0.5485 C   0  0  0  0  0  0  0  0  0  0  0  0
    4.6068   -1.5661   -0.9402 O   0  0  0  0  0  0  0  0  0  0  0  0
   -0.2687   -2.0766   -0.1262 N   0  0  0  0  0  0  0  0  0  0  0  0
   -1.1117   -1.2167   -0.7778 N   0  0  0  0  0  0  0  0  0  0  0  0
   -4.2171    0.7136    0.9966 C   0  0  0  0  0  0  0  0  0  0  0  0
   -6.9715    2.7213    1.1330 H   0  0  0  0  0  0  0  0  0  0  0  0
   -6.9549    2.2275   -1.2967 H   0  0  0  0  0  0  0  0  0  0  0  0
   -5.2108    0.7711   -2.2542 H   0  0  0  0  0  0  0  0  0  0  0  0
   -2.8052    0.0598   -1.7777 H   0  0  0  0  0  0  0  0  0  0  0  0
   -3.8654   -2.2063    0.9891 H   0  0  0  0  0  0  0  0  0  0  0  0
   -2.2074   -3.7052    2.0863 H   0  0  0  0  0  0  0  0  0  0  0  0
    2.5069   -2.1622   -1.8937 H   0  0  0  0  0  0  0  0  0  0  0  0
    1.1801   -1.0369   -2.1233 H   0  0  0  0  0  0  0  0  0  0  0  0
    0.8863    0.8194   -0.5242 H   0  0  0  0  0  0  0  0  0  0  0  0
    2.0900    2.6601    0.6060 H   0  0  0  0  0  0  0  0  0  0  0  0
    6.3756    3.4273    1.9348 H   0  0  0  0  0  0  0  0  0  0  0  0
    7.7601    1.4480    1.2921 H   0  0  0  0  0  0  0  0  0  0  0  0
    6.6437   -0.4591    0.1183 H   0  0  0  0  0  0  0  0  0  0  0  0
   -3.4484    0.3297    1.6607 H   0  0  0  0  0  0  0  0  0  0  0  0
  1  2  1  0
  2  3  2  0
  3  4  1  0
  4  5  2  0
  5  6  1  0
  6  7  1  0
  7  8  1  0
  8  9  1  0
  9 10  2  0
 10 11  1  0
 11 12  2  0
 12 13  1  0
 13 14  2  0
 14 15  1  0
 15 16  1  0
 16 17  1  0
 17 18  2  0
 18 19  1  0
 19 20  2  0
 20 21  1  0
 21 22  2  0
 22 23  1  0
 23 24  2  0
 24 25  1  0
 25 26  2  0
 14 27  1  0
 27 28  1  0
  6 29  2  0
 29  2  1  0
 28  8  2  0
 27 11  1  0
 25 16  1  0
 24 19  1  0
  3 30  1  0
  4 31  1  0
  5 32  1  0
  7 33  1  0
  9 34  1  0
 10 35  1  0
 15 36  1  0
 15 37  1  0
 17 38  1  0
 18 39  1  0
 21 40  1  0
 22 41  1  0
 23 42  1  0
 29 43  1  0
M  END
>  <Unnamed: 0>  (72) 
529

>  <ID>  (72) 
TRAIN_0529

>  <Canonical_Smiles>  (72) 
Clc1cccc(Nc2ccc3nnc(CN4C=Cc5ncccc5C4=O)n3n2)c1

>  <Inhibition>  (72) 
51.8

>  <TDC_conf_true_inhibitor>  (72) 
1

>  <TDC_conf_non_inhibitor>  (72) 
0

>  <split>  (72) 
1

$$$$
72
     RDKit          3D

 27 29  0  0  0  0  0  0  0  0999 V2000
   -5.2740    0.4995   -0.4765 C   0  0  0  0  0  0  0  0  0  0  0  0
   -3.8735    0.0041   -0.2534 C   0  0  0  0  0  0  0  0  0  0  0  0
   -3.6728   -1.3148    0.1431 C   0  0  0  0  0  0  0  0  0  0  0  0
   -2.3736   -1.7758    0.3504 C   0  0  0  0  0  0  0  0  0  0  0  0
   -1.3067   -0.8795    0.1482 C   0  0  0  0  0  0  0  0  0  0  0  0
    0.1131   -1.0251    0.2702 C   0  0  0  0  0  0  0  0  0  0  0  0
    0.8065    0.1366   -0.0212 C   0  0  0  0  0  0  0  0  0  0  0  0
   -0.2701    1.3991   -0.4609 S   0  0  0  0  0  0  0  0  0  0  0  0
   -1.6378    0.4100   -0.2470 C   0  0  0  0  0  0  0  0  0  0  0  0
   -2.8789    0.8938   -0.4577 N   0  0  0  0  0  0  0  0  0  0  0  0
    2.2579    0.3610   -0.0189 C   0  0  0  0  0  0  0  0  0  0  0  0
    3.1141   -0.5887   -0.5986 C   0  0  0  0  0  0  0  0  0  0  0  0
    4.4998   -0.3989   -0.5962 C   0  0  0  0  0  0  0  0  0  0  0  0
    5.0408    0.7419   -0.0093 C   0  0  0  0  0  0  0  0  0  0  0  0
    6.7449    0.9753   -0.0043 Cl  0  0  0  0  0  0  0  0  0  0  0  0
    4.2092    1.6932    0.5752 C   0  0  0  0  0  0  0  0  0  0  0  0
    2.8235    1.5023    0.5713 C   0  0  0  0  0  0  0  0  0  0  0  0
   -5.2722    1.5504   -0.7835 H   0  0  0  0  0  0  0  0  0  0  0  0
   -5.8560    0.4154    0.4466 H   0  0  0  0  0  0  0  0  0  0  0  0
   -5.7603   -0.0845   -1.2642 H   0  0  0  0  0  0  0  0  0  0  0  0
   -4.5160   -1.9828    0.2912 H   0  0  0  0  0  0  0  0  0  0  0  0
   -2.1929   -2.8004    0.6603 H   0  0  0  0  0  0  0  0  0  0  0  0
    0.5995   -1.9454    0.5705 H   0  0  0  0  0  0  0  0  0  0  0  0
    2.7085   -1.4810   -1.0709 H   0  0  0  0  0  0  0  0  0  0  0  0
    5.1465   -1.1418   -1.0552 H   0  0  0  0  0  0  0  0  0  0  0  0
    4.6282    2.5835    1.0367 H   0  0  0  0  0  0  0  0  0  0  0  0
    2.1923    2.2526    1.0435 H   0  0  0  0  0  0  0  0  0  0  0  0
  1  2  1  0
  2  3  2  0
  3  4  1  0
  4  5  2  0
  5  6  1  0
  6  7  2  0
  7  8  1  0
  8  9  1  0
  9 10  2  0
  7 11  1  0
 11 12  2  0
 12 13  1  0
 13 14  2  0
 14 15  1  0
 14 16  1  0
 16 17  2  0
 10  2  1  0
  9  5  1  0
 17 11  1  0
  1 18  1  0
  1 19  1  0
  1 20  1  0
  3 21  1  0
  4 22  1  0
  6 23  1  0
 12 24  1  0
 13 25  1  0
 16 26  1  0
 17 27  1  0
M  END
>  <Unnamed: 0>  (73) 
545

>  <ID>  (73) 
TRAIN_0545

>  <Canonical_Smiles>  (73) 
Cc1ccc2cc(sc2n1)c3ccc(Cl)cc3

>  <Inhibition>  (73) 
35.0

>  <TDC_conf_true_inhibitor>  (73) 
0

>  <TDC_conf_non_inhibitor>  (73) 
1

>  <split>  (73) 
1

$$$$
73
     RDKit          3D

 32 35  0  0  0  0  0  0  0  0999 V2000
   -2.6897   -2.8715   -1.9940 O   0  0  0  0  0  0  0  0  0  0  0  0
   -2.6807   -1.2634   -1.8349 S   0  0  0  0  0  6  0  0  0  0  0  0
   -3.7787   -0.8281   -2.9246 O   0  0  0  0  0  0  0  0  0  0  0  0
   -1.2524   -0.7569   -2.1939 N   0  0  0  0  0  0  0  0  0  0  0  0
   -0.8240   -0.2424   -1.0282 C   0  0  0  0  0  0  0  0  0  0  0  0
    0.4226    0.3028   -0.8397 N   0  0  0  0  0  0  0  0  0  0  0  0
    1.1030    0.8410   -2.0499 C   0  0  0  0  0  0  0  0  0  0  0  0
    2.2513    1.7977   -1.6637 C   0  0  0  0  0  0  0  0  0  0  0  0
    3.1268    1.1506   -0.6364 C   0  0  0  0  0  0  0  0  0  0  0  0
    4.7141    1.6561   -0.3138 S   0  0  0  0  0  0  0  0  0  0  0  0
    4.8952    0.4629    0.9028 C   0  0  0  0  0  0  0  0  0  0  0  0
    3.7571   -0.3015    1.0566 C   0  0  0  0  0  0  0  0  0  0  0  0
    2.7207    0.0997    0.1615 C   0  0  0  0  0  0  0  0  0  0  0  0
    1.3450   -0.4932    0.0186 C   0  0  0  0  0  0  0  0  0  0  0  0
   -1.8378   -0.2492    0.0937 C   0  0  0  0  0  0  0  0  0  0  0  0
   -1.7913    0.2681    1.4135 C   0  0  0  0  0  0  0  0  0  0  0  0
   -2.8995    0.1392    2.2595 C   0  0  0  0  0  0  0  0  0  0  0  0
   -4.0626   -0.4859    1.8197 C   0  0  0  0  0  0  0  0  0  0  0  0
   -4.1571   -0.9957    0.5223 C   0  0  0  0  0  0  0  0  0  0  0  0
   -3.0432   -0.8673   -0.3163 C   0  0  0  0  0  0  0  0  0  0  0  0
    0.3921    1.4002   -2.6715 H   0  0  0  0  0  0  0  0  0  0  0  0
    1.4931    0.0103   -2.6538 H   0  0  0  0  0  0  0  0  0  0  0  0
    2.8205    2.0652   -2.5608 H   0  0  0  0  0  0  0  0  0  0  0  0
    1.8325    2.7192   -1.2410 H   0  0  0  0  0  0  0  0  0  0  0  0
    5.8273    0.3813    1.4450 H   0  0  0  0  0  0  0  0  0  0  0  0
    3.6789   -1.1076    1.7762 H   0  0  0  0  0  0  0  0  0  0  0  0
    1.4526   -1.5007   -0.4063 H   0  0  0  0  0  0  0  0  0  0  0  0
    0.9185   -0.6056    1.0219 H   0  0  0  0  0  0  0  0  0  0  0  0
   -0.9007    0.7829    1.7669 H   0  0  0  0  0  0  0  0  0  0  0  0
   -2.8522    0.5411    3.2701 H   0  0  0  0  0  0  0  0  0  0  0  0
   -4.9144   -0.5725    2.4923 H   0  0  0  0  0  0  0  0  0  0  0  0
   -5.0671   -1.4768    0.1732 H   0  0  0  0  0  0  0  0  0  0  0  0
  1  2  2  0
  2  3  2  0
  2  4  1  0
  4  5  2  0
  5  6  1  0
  6  7  1  0
  7  8  1  0
  8  9  1  0
  9 10  1  0
 10 11  1  0
 11 12  2  0
 12 13  1  0
 13 14  1  0
  5 15  1  0
 15 16  2  0
 16 17  1  0
 17 18  2  0
 18 19  1  0
 19 20  2  0
 20  2  1  0
 14  6  1  0
 13  9  2  0
 20 15  1  0
  7 21  1  0
  7 22  1  0
  8 23  1  0
  8 24  1  0
 11 25  1  0
 12 26  1  0
 14 27  1  0
 14 28  1  0
 16 29  1  0
 17 30  1  0
 18 31  1  0
 19 32  1  0
M  END
>  <Unnamed: 0>  (74) 
553

>  <ID>  (74) 
TRAIN_0553

>  <Canonical_Smiles>  (74) 
O=S1(=O)N=C(N2CCc3sccc3C2)c4ccccc14

>  <Inhibition>  (74) 
52.5

>  <TDC_conf_true_inhibitor>  (74) 
1

>  <TDC_conf_non_inhibitor>  (74) 
0

>  <split>  (74) 
1

$$$$
74
     RDKit          3D

 55 58  0  0  0  0  0  0  0  0999 V2000
   -8.9057    0.6752   -0.9651 C   0  0  0  0  0  0  0  0  0  0  0  0
   -8.0425   -0.1711   -0.2006 O   0  0  0  0  0  0  0  0  0  0  0  0
   -6.8286    0.3713    0.0737 C   0  0  0  0  0  0  0  0  0  0  0  0
   -6.4565    1.4861   -0.2704 O   0  0  0  0  0  0  0  0  0  0  0  0
   -5.9690   -0.5734    0.8528 C   0  0  0  0  0  0  0  0  0  0  0  0
   -6.5057   -1.7905    1.3139 C   0  0  0  0  0  0  0  0  0  0  0  0
   -5.7192   -2.6818    2.0413 C   0  0  0  0  0  0  0  0  0  0  0  0
   -4.3936   -2.3651    2.3159 C   0  0  0  0  0  0  0  0  0  0  0  0
   -3.8476   -1.1582    1.8669 C   0  0  0  0  0  0  0  0  0  0  0  0
   -4.6175   -0.2457    1.1344 C   0  0  0  0  0  0  0  0  0  0  0  0
   -4.0846    0.9842    0.6659 N   0  0  0  0  0  0  0  0  0  0  0  0
   -2.8067    1.4928    0.8156 C   0  0  0  0  0  0  0  0  0  0  0  0
   -1.8821    0.9558    1.4229 O   0  0  0  0  0  0  0  0  0  0  0  0
   -2.6366    2.8529    0.1414 C   0  0  0  0  0  0  0  0  0  0  0  0
   -1.0273    2.9692   -0.7003 S   0  0  0  0  0  0  0  0  0  0  0  0
   -1.1874    1.6586   -1.8234 C   0  0  0  0  0  0  0  0  0  0  0  0
   -2.2709    1.4550   -2.5410 N   0  0  0  0  0  0  0  0  0  0  0  0
   -1.9540    0.4699   -3.4311 N   0  0  0  0  0  0  0  0  0  0  0  0
   -0.7009    0.0725   -3.2771 N   0  0  0  0  0  0  0  0  0  0  0  0
   -0.2029    0.7577   -2.2085 N   0  0  0  0  0  0  0  0  0  0  0  0
    1.0948    0.4567   -1.7101 C   0  0  0  0  0  0  0  0  0  0  0  0
    1.9756   -0.2819   -2.5164 C   0  0  0  0  0  0  0  0  0  0  0  0
    3.2638   -0.5870   -2.0653 C   0  0  0  0  0  0  0  0  0  0  0  0
    3.6927   -0.1755   -0.8040 C   0  0  0  0  0  0  0  0  0  0  0  0
    4.9752   -0.5273   -0.4933 O   0  0  0  0  0  0  0  0  0  0  0  0
    5.4921   -0.0660    0.7534 C   0  0  0  0  0  0  0  0  0  0  0  0
    6.9480   -0.4555    0.8463 C   0  0  0  0  0  0  0  0  0  0  0  0
    7.8795    0.0707   -0.0616 C   0  0  0  0  0  0  0  0  0  0  0  0
    9.2295   -0.2742    0.0264 C   0  0  0  0  0  0  0  0  0  0  0  0
    9.6619   -1.1499    1.0213 C   0  0  0  0  0  0  0  0  0  0  0  0
    8.7459   -1.6811    1.9277 C   0  0  0  0  0  0  0  0  0  0  0  0
    7.3950   -1.3376    1.8411 C   0  0  0  0  0  0  0  0  0  0  0  0
    2.8103    0.5276    0.0146 C   0  0  0  0  0  0  0  0  0  0  0  0
    1.5178    0.8416   -0.4332 C   0  0  0  0  0  0  0  0  0  0  0  0
   -9.8299    0.1270   -1.1626 H   0  0  0  0  0  0  0  0  0  0  0  0
   -8.4448    0.9329   -1.9232 H   0  0  0  0  0  0  0  0  0  0  0  0
   -9.1526    1.5781   -0.3987 H   0  0  0  0  0  0  0  0  0  0  0  0
   -7.5406   -2.0601    1.1132 H   0  0  0  0  0  0  0  0  0  0  0  0
   -6.1394   -3.6213    2.3915 H   0  0  0  0  0  0  0  0  0  0  0  0
   -3.7743   -3.0591    2.8801 H   0  0  0  0  0  0  0  0  0  0  0  0
   -2.8071   -0.9660    2.1082 H   0  0  0  0  0  0  0  0  0  0  0  0
   -4.7481    1.5527    0.1309 H   0  0  0  0  0  0  0  0  0  0  0  0
   -2.6883    3.6211    0.9184 H   0  0  0  0  0  0  0  0  0  0  0  0
   -3.4356    3.0486   -0.5809 H   0  0  0  0  0  0  0  0  0  0  0  0
    1.6899   -0.6179   -3.5125 H   0  0  0  0  0  0  0  0  0  0  0  0
    3.9409   -1.1432   -2.7083 H   0  0  0  0  0  0  0  0  0  0  0  0
    5.4237    1.0277    0.8273 H   0  0  0  0  0  0  0  0  0  0  0  0
    4.9295   -0.5196    1.5793 H   0  0  0  0  0  0  0  0  0  0  0  0
    7.5505    0.7482   -0.8473 H   0  0  0  0  0  0  0  0  0  0  0  0
    9.9419    0.1371   -0.6840 H   0  0  0  0  0  0  0  0  0  0  0  0
   10.7122   -1.4197    1.0886 H   0  0  0  0  0  0  0  0  0  0  0  0
    9.0835   -2.3658    2.7022 H   0  0  0  0  0  0  0  0  0  0  0  0
    6.6936   -1.7659    2.5539 H   0  0  0  0  0  0  0  0  0  0  0  0
    3.0851    0.8436    1.0164 H   0  0  0  0  0  0  0  0  0  0  0  0
    0.8673    1.3455    0.2721 H   0  0  0  0  0  0  0  0  0  0  0  0
  1  2  1  0
  2  3  1  0
  3  4  2  0
  3  5  1  0
  5  6  2  0
  6  7  1  0
  7  8  2  0
  8  9  1  0
  9 10  2  0
 10 11  1  0
 11 12  1  0
 12 13  2  0
 12 14  1  0
 14 15  1  0
 15 16  1  0
 16 17  2  0
 17 18  1  0
 18 19  2  0
 19 20  1  0
 20 21  1  0
 21 22  2  0
 22 23  1  0
 23 24  2  0
 24 25  1  0
 25 26  1  0
 26 27  1  0
 27 28  2  0
 28 29  1  0
 29 30  2  0
 30 31  1  0
 31 32  2  0
 24 33  1  0
 33 34  2  0
 10  5  1  0
 20 16  1  0
 34 21  1  0
 32 27  1  0
  1 35  1  0
  1 36  1  0
  1 37  1  0
  6 38  1  0
  7 39  1  0
  8 40  1  0
  9 41  1  0
 11 42  1  0
 14 43  1  0
 14 44  1  0
 22 45  1  0
 23 46  1  0
 26 47  1  0
 26 48  1  0
 28 49  1  0
 29 50  1  0
 30 51  1  0
 31 52  1  0
 32 53  1  0
 33 54  1  0
 34 55  1  0
M  END
>  <Unnamed: 0>  (75) 
556

>  <ID>  (75) 
TRAIN_0556

>  <Canonical_Smiles>  (75) 
COC(=O)c1ccccc1NC(=O)CSc2nnnn2c3ccc(OCc4ccccc4)cc3

>  <Inhibition>  (75) 
51.6

>  <TDC_conf_true_inhibitor>  (75) 
1

>  <TDC_conf_non_inhibitor>  (75) 
0

>  <split>  (75) 
1

$$$$
75
     RDKit          3D

 59 61  0  0  0  0  0  0  0  0999 V2000
    3.7191   -0.7680   -2.8951 C   0  0  0  0  0  0  0  0  0  0  0  0
    2.7097    0.1931   -2.2990 C   0  0  0  0  0  0  0  0  0  0  0  0
    2.0715   -0.4021   -1.1611 O   0  0  0  0  0  0  0  0  0  0  0  0
    2.7093   -0.2351    0.0260 C   0  0  0  0  0  0  0  0  0  0  0  0
    3.7658    0.3451    0.2169 O   0  0  0  0  0  0  0  0  0  0  0  0
    1.9157   -0.8813    1.0816 C   0  0  0  0  0  0  0  0  0  0  0  0
    0.7537   -0.3409    1.4992 C   0  0  0  0  0  0  0  0  0  0  0  0
    0.1733    0.8851    1.0577 C   0  0  0  0  0  0  0  0  0  0  0  0
    0.7976    2.1087    1.0646 C   0  0  0  0  0  0  0  0  0  0  0  0
   -0.1206    3.0285    0.6136 N   0  0  0  0  0  0  0  0  0  0  0  0
   -1.3127    2.4415    0.3411 N   0  0  0  0  0  0  0  0  0  0  0  0
   -1.1417    1.1352    0.5844 C   0  0  0  0  0  0  0  0  0  0  0  0
   -2.2276    0.1848    0.3459 C   0  0  0  0  0  0  0  0  0  0  0  0
   -3.5337    0.4989    0.7342 C   0  0  0  0  0  0  0  0  0  0  0  0
   -4.5779   -0.4041    0.5132 C   0  0  0  0  0  0  0  0  0  0  0  0
   -4.3291   -1.6342   -0.1031 C   0  0  0  0  0  0  0  0  0  0  0  0
   -5.2863   -2.5877   -0.3529 O   0  0  0  0  0  0  0  0  0  0  0  0
   -6.6263   -2.2853    0.0067 C   0  0  0  0  0  0  0  0  0  0  0  0
   -3.0175   -1.9540   -0.5096 C   0  0  0  0  0  0  0  0  0  0  0  0
   -2.8558   -3.1743   -1.1195 O   0  0  0  0  0  0  0  0  0  0  0  0
   -1.5357   -3.5764   -1.4545 C   0  0  0  0  0  0  0  0  0  0  0  0
   -1.9803   -1.0394   -0.2901 C   0  0  0  0  0  0  0  0  0  0  0  0
    0.0614    4.4279    0.4284 C   0  0  0  0  0  0  0  0  0  0  0  0
   -1.0026    5.2026   -0.0599 C   0  0  0  0  0  0  0  0  0  0  0  0
   -0.8422    6.5759   -0.2566 C   0  0  0  0  0  0  0  0  0  0  0  0
    0.3772    7.1846    0.0320 C   0  0  0  0  0  0  0  0  0  0  0  0
    1.4384    6.4223    0.5170 C   0  0  0  0  0  0  0  0  0  0  0  0
    1.2868    5.0461    0.7130 C   0  0  0  0  0  0  0  0  0  0  0  0
    2.3603   -2.1524    1.6841 C   0  0  0  0  0  0  0  0  0  0  0  0
    1.8039   -2.6982    2.6260 O   0  0  0  0  0  0  0  0  0  0  0  0
    3.4409   -2.6331    1.0214 O   0  0  0  0  0  0  0  0  0  0  0  0
    3.9785   -3.8727    1.5077 C   0  0  0  0  0  0  0  0  0  0  0  0
    3.2753   -5.0400    0.8396 C   0  0  0  0  0  0  0  0  0  0  0  0
    4.1498   -0.3602   -3.8132 H   0  0  0  0  0  0  0  0  0  0  0  0
    3.2491   -1.7297   -3.1197 H   0  0  0  0  0  0  0  0  0  0  0  0
    4.5289   -0.9704   -2.1899 H   0  0  0  0  0  0  0  0  0  0  0  0
    1.9236    0.4015   -3.0297 H   0  0  0  0  0  0  0  0  0  0  0  0
    3.1701    1.1520   -2.0428 H   0  0  0  0  0  0  0  0  0  0  0  0
    0.1652   -0.8862    2.2391 H   0  0  0  0  0  0  0  0  0  0  0  0
    1.7964    2.3927    1.3578 H   0  0  0  0  0  0  0  0  0  0  0  0
   -3.7448    1.4539    1.2116 H   0  0  0  0  0  0  0  0  0  0  0  0
   -5.5721   -0.1142    0.8348 H   0  0  0  0  0  0  0  0  0  0  0  0
   -6.7241   -2.1417    1.0892 H   0  0  0  0  0  0  0  0  0  0  0  0
   -7.2463   -3.1434   -0.2710 H   0  0  0  0  0  0  0  0  0  0  0  0
   -6.9992   -1.4142   -0.5443 H   0  0  0  0  0  0  0  0  0  0  0  0
   -0.8968   -3.6191   -0.5652 H   0  0  0  0  0  0  0  0  0  0  0  0
   -1.5902   -4.5856   -1.8735 H   0  0  0  0  0  0  0  0  0  0  0  0
   -1.1070   -2.9214   -2.2204 H   0  0  0  0  0  0  0  0  0  0  0  0
   -0.9738   -1.2549   -0.6305 H   0  0  0  0  0  0  0  0  0  0  0  0
   -1.9643    4.7495   -0.2952 H   0  0  0  0  0  0  0  0  0  0  0  0
   -1.6702    7.1676   -0.6411 H   0  0  0  0  0  0  0  0  0  0  0  0
    0.5011    8.2533   -0.1231 H   0  0  0  0  0  0  0  0  0  0  0  0
    2.3899    6.8993    0.7389 H   0  0  0  0  0  0  0  0  0  0  0  0
    2.1422    4.4936    1.0892 H   0  0  0  0  0  0  0  0  0  0  0  0
    3.9116   -3.9386    2.5999 H   0  0  0  0  0  0  0  0  0  0  0  0
    5.0417   -3.8833    1.2501 H   0  0  0  0  0  0  0  0  0  0  0  0
    2.2117   -5.0557    1.0987 H   0  0  0  0  0  0  0  0  0  0  0  0
    3.7226   -5.9895    1.1479 H   0  0  0  0  0  0  0  0  0  0  0  0
    3.3364   -4.9565   -0.2507 H   0  0  0  0  0  0  0  0  0  0  0  0
  1  2  1  0
  2  3  1  0
  3  4  1  0
  4  5  2  0
  4  6  1  0
  6  7  2  3
  7  8  1  0
  8  9  2  0
  9 10  1  0
 10 11  1  0
 11 12  2  0
 12 13  1  0
 13 14  2  0
 14 15  1  0
 15 16  2  0
 16 17  1  0
 17 18  1  0
 16 19  1  0
 19 20  1  0
 20 21  1  0
 19 22  2  0
 10 23  1  0
 23 24  2  0
 24 25  1  0
 25 26  2  0
 26 27  1  0
 27 28  2  0
  6 29  1  0
 29 30  2  0
 29 31  1  0
 31 32  1  0
 32 33  1  0
 12  8  1  0
 22 13  1  0
 28 23  1  0
  1 34  1  0
  1 35  1  0
  1 36  1  0
  2 37  1  0
  2 38  1  0
  7 39  1  0
  9 40  1  0
 14 41  1  0
 15 42  1  0
 18 43  1  0
 18 44  1  0
 18 45  1  0
 21 46  1  0
 21 47  1  0
 21 48  1  0
 22 49  1  0
 24 50  1  0
 25 51  1  0
 26 52  1  0
 27 53  1  0
 28 54  1  0
 32 55  1  0
 32 56  1  0
 33 57  1  0
 33 58  1  0
 33 59  1  0
M  END
>  <Unnamed: 0>  (76) 
557

>  <ID>  (76) 
TRAIN_0557

>  <Canonical_Smiles>  (76) 
CCOC(=O)C(=Cc1cn(nc1c2ccc(OC)c(OC)c2)c3ccccc3)C(=O)OCC

>  <Inhibition>  (76) 
49.7

>  <TDC_conf_true_inhibitor>  (76) 
1

>  <TDC_conf_non_inhibitor>  (76) 
0

>  <split>  (76) 
1

$$$$
76
     RDKit          3D

 41 44  0  0  0  0  0  0  0  0999 V2000
   -4.5332   -1.5941   -0.9293 C   0  0  0  0  0  0  0  0  0  0  0  0
   -3.5333   -0.5914   -0.4262 C   0  0  0  0  0  0  0  0  0  0  0  0
   -4.0589    0.6048   -0.0728 N   0  0  0  0  0  0  0  0  0  0  0  0
   -3.2815    1.5640    0.4159 C   0  0  0  0  0  0  0  0  0  0  0  0
   -3.8800    2.7103    0.7472 N   0  0  0  0  0  0  0  0  0  0  0  0
   -3.1442    3.7162    1.2608 C   0  0  0  0  0  0  0  0  0  0  0  0
   -1.7878    3.6370    1.4723 C   0  0  0  0  0  0  0  0  0  0  0  0
   -1.1594    2.4498    1.1287 C   0  0  0  0  0  0  0  0  0  0  0  0
   -1.8990    1.3737    0.5816 C   0  0  0  0  0  0  0  0  0  0  0  0
   -1.3311    0.1231    0.1949 C   0  0  0  0  0  0  0  0  0  0  0  0
   -2.1704   -0.8798   -0.3381 C   0  0  0  0  0  0  0  0  0  0  0  0
   -1.6393   -2.2259   -0.7543 C   0  0  0  0  0  0  0  0  0  0  0  0
   -1.7315   -3.1153    0.3481 O   0  0  0  0  0  0  0  0  0  0  0  0
    0.1191   -0.1257    0.3713 C   0  0  0  0  0  0  0  0  0  0  0  0
    0.5527   -0.7583    1.5480 C   0  0  0  0  0  0  0  0  0  0  0  0
    1.9043   -1.0181    1.7609 C   0  0  0  0  0  0  0  0  0  0  0  0
    2.8483   -0.6518    0.8038 C   0  0  0  0  0  0  0  0  0  0  0  0
    4.1460   -0.9613    1.1171 O   0  0  0  0  0  0  0  0  0  0  0  0
    5.0551   -0.9184    0.0156 C   0  0  0  0  0  0  0  0  0  0  0  0
    4.9069    0.3674   -0.7731 C   0  0  0  0  0  0  0  0  0  0  0  0
    3.5097    0.4179   -1.3741 C   0  0  0  0  0  0  0  0  0  0  0  0
    2.4619    0.0096   -0.3703 C   0  0  0  0  0  0  0  0  0  0  0  0
    1.0882    0.2483   -0.5889 C   0  0  0  0  0  0  0  0  0  0  0  0
    0.5741    0.9961   -2.0736 Cl  0  0  0  0  0  0  0  0  0  0  0  0
   -4.4749   -2.5219   -0.3522 H   0  0  0  0  0  0  0  0  0  0  0  0
   -4.3596   -1.8069   -1.9885 H   0  0  0  0  0  0  0  0  0  0  0  0
   -5.5536   -1.2083   -0.8302 H   0  0  0  0  0  0  0  0  0  0  0  0
   -3.7016    4.6159    1.5053 H   0  0  0  0  0  0  0  0  0  0  0  0
   -1.2352    4.4703    1.8898 H   0  0  0  0  0  0  0  0  0  0  0  0
   -0.0874    2.3692    1.2891 H   0  0  0  0  0  0  0  0  0  0  0  0
   -2.2048   -2.6404   -1.5947 H   0  0  0  0  0  0  0  0  0  0  0  0
   -0.5984   -2.1749   -1.0871 H   0  0  0  0  0  0  0  0  0  0  0  0
   -1.3143   -3.9487    0.0727 H   0  0  0  0  0  0  0  0  0  0  0  0
   -0.1718   -1.0632    2.3025 H   0  0  0  0  0  0  0  0  0  0  0  0
    2.2225   -1.5163    2.6737 H   0  0  0  0  0  0  0  0  0  0  0  0
    6.0673   -0.9831    0.4284 H   0  0  0  0  0  0  0  0  0  0  0  0
    4.9025   -1.8037   -0.6143 H   0  0  0  0  0  0  0  0  0  0  0  0
    5.6628    0.4345   -1.5624 H   0  0  0  0  0  0  0  0  0  0  0  0
    5.0442    1.2247   -0.1018 H   0  0  0  0  0  0  0  0  0  0  0  0
    3.3310    1.4377   -1.7327 H   0  0  0  0  0  0  0  0  0  0  0  0
    3.4547   -0.2632   -2.2322 H   0  0  0  0  0  0  0  0  0  0  0  0
  1  2  1  0
  2  3  2  0
  3  4  1  0
  4  5  2  0
  5  6  1  0
  6  7  2  0
  7  8  1  0
  8  9  2  0
  9 10  1  0
 10 11  2  0
 11 12  1  0
 12 13  1  0
 10 14  1  0
 14 15  2  0
 15 16  1  0
 16 17  2  0
 17 18  1  0
 18 19  1  0
 19 20  1  0
 20 21  1  0
 21 22  1  0
 22 23  2  0
 23 24  1  0
 11  2  1  0
  9  4  1  0
 23 14  1  0
 22 17  1  0
  1 25  1  0
  1 26  1  0
  1 27  1  0
  6 28  1  0
  7 29  1  0
  8 30  1  0
 12 31  1  0
 12 32  1  0
 13 33  1  0
 15 34  1  0
 16 35  1  0
 19 36  1  0
 19 37  1  0
 20 38  1  0
 20 39  1  0
 21 40  1  0
 21 41  1  0
M  END
>  <Unnamed: 0>  (77) 
558

>  <ID>  (77) 
TRAIN_0558

>  <Canonical_Smiles>  (77) 
Cc1nc2ncccc2c(c1CO)c3ccc4OCCCc4c3Cl

>  <Inhibition>  (77) 
22.9

>  <TDC_conf_true_inhibitor>  (77) 
0

>  <TDC_conf_non_inhibitor>  (77) 
1

>  <split>  (77) 
1

$$$$
77
     RDKit          3D

 69 73  0  0  0  0  0  0  0  0999 V2000
   -9.6203    0.6014   -2.3223 C   0  0  0  0  0  0  0  0  0  0  0  0
   -9.3179    0.0682   -0.9124 C   0  0  0  0  0  0  0  0  0  0  0  0
  -10.0660   -1.2557   -0.7193 C   0  0  0  0  0  0  0  0  0  0  0  0
   -9.7433    1.1256    0.1122 C   0  0  0  0  0  0  0  0  0  0  0  0
   -7.8802   -0.1273   -0.8987 O   0  0  0  0  0  0  0  0  0  0  0  0
   -7.2435   -0.5873    0.2084 C   0  0  0  0  0  0  0  0  0  0  0  0
   -7.8027   -0.8982    1.2519 O   0  0  0  0  0  0  0  0  0  0  0  0
   -5.8729   -0.6630    0.0144 N   0  0  0  0  0  0  0  0  0  0  0  0
   -5.0145   -1.1686    1.0741 C   0  0  0  0  0  0  0  0  0  0  0  0
   -3.7795   -0.2938    1.2707 C   0  0  0  0  0  0  0  0  0  0  0  0
   -3.1216    0.1345   -0.0564 C   0  0  0  0  0  0  0  0  0  0  0  0
   -3.7526   -0.5480   -1.2726 C   0  0  0  0  0  0  0  0  0  0  0  0
   -5.2604   -0.3286   -1.2662 C   0  0  0  0  0  0  0  0  0  0  0  0
   -1.6672   -0.0204   -0.0099 N   0  0  0  0  0  0  0  0  0  0  0  0
   -0.9817   -1.2818   -0.2527 C   0  0  0  0  0  0  0  0  0  0  0  0
    0.4151   -0.9854    0.1618 C   0  0  0  0  0  0  0  0  0  0  0  0
    1.5525   -1.7589    0.1321 C   0  0  0  0  0  0  0  0  0  0  0  0
    2.7274   -1.1850    0.6291 C   0  0  0  0  0  0  0  0  0  0  0  0
    2.7253    0.1302    1.1289 C   0  0  0  0  0  0  0  0  0  0  0  0
    3.8747    0.7082    1.6780 N   0  0  0  0  0  0  0  0  0  0  0  0
    5.2146    0.6663    1.2517 C   0  0  0  0  0  0  0  0  0  0  0  0
    6.2112    1.0616    2.1518 C   0  0  0  0  0  0  0  0  0  0  0  0
    7.5659    1.0470    1.7939 C   0  0  0  0  0  0  0  0  0  0  0  0
    7.9538    0.6402    0.5194 C   0  0  0  0  0  0  0  0  0  0  0  0
    9.2912    0.5991    0.0747 N   0  0  0  0  0  0  0  0  0  0  0  0
   10.4265    0.9190    0.7911 C   0  0  0  0  0  0  0  0  0  0  0  0
   10.4780    1.2901    1.9551 O   0  0  0  0  0  0  0  0  0  0  0  0
   11.7220    0.7871    0.0501 C   0  0  0  0  0  0  0  0  0  0  0  0
   11.8641    1.1056   -1.4200 C   0  0  0  0  0  0  0  0  0  0  0  0
   11.9851   -0.3168   -0.9483 C   0  0  0  0  0  0  0  0  0  0  0  0
    6.9628    0.2506   -0.3885 C   0  0  0  0  0  0  0  0  0  0  0  0
    5.6092    0.2621   -0.0251 C   0  0  0  0  0  0  0  0  0  0  0  0
    1.6078    0.8832    1.1737 N   0  0  0  0  0  0  0  0  0  0  0  0
    0.5063    0.2943    0.6788 C   0  0  0  0  0  0  0  0  0  0  0  0
   -0.8339    0.9107    0.6149 C   0  0  0  0  0  0  0  0  0  0  0  0
   -1.1514    2.0056    1.0404 O   0  0  0  0  0  0  0  0  0  0  0  0
  -10.6852    0.8213   -2.4592 H   0  0  0  0  0  0  0  0  0  0  0  0
   -9.0472    1.5167   -2.5215 H   0  0  0  0  0  0  0  0  0  0  0  0
   -9.3127   -0.1236   -3.0842 H   0  0  0  0  0  0  0  0  0  0  0  0
   -9.6800   -2.0232   -1.3998 H   0  0  0  0  0  0  0  0  0  0  0  0
  -11.1400   -1.1348   -0.9012 H   0  0  0  0  0  0  0  0  0  0  0  0
   -9.9479   -1.6475    0.2954 H   0  0  0  0  0  0  0  0  0  0  0  0
   -9.6202    0.7715    1.1397 H   0  0  0  0  0  0  0  0  0  0  0  0
   -9.1294    2.0291    0.0163 H   0  0  0  0  0  0  0  0  0  0  0  0
  -10.7958    1.4043   -0.0134 H   0  0  0  0  0  0  0  0  0  0  0  0
   -5.5618   -1.2507    2.0188 H   0  0  0  0  0  0  0  0  0  0  0  0
   -4.7174   -2.1863    0.7912 H   0  0  0  0  0  0  0  0  0  0  0  0
   -3.0718   -0.8214    1.9223 H   0  0  0  0  0  0  0  0  0  0  0  0
   -4.0702    0.6141    1.8176 H   0  0  0  0  0  0  0  0  0  0  0  0
   -3.3015    1.2146   -0.1588 H   0  0  0  0  0  0  0  0  0  0  0  0
   -3.3226   -0.1540   -2.2007 H   0  0  0  0  0  0  0  0  0  0  0  0
   -3.5405   -1.6243   -1.2609 H   0  0  0  0  0  0  0  0  0  0  0  0
   -5.4920    0.7219   -1.4807 H   0  0  0  0  0  0  0  0  0  0  0  0
   -5.7314   -0.9353   -2.0480 H   0  0  0  0  0  0  0  0  0  0  0  0
   -1.4249   -2.0636    0.3719 H   0  0  0  0  0  0  0  0  0  0  0  0
   -1.0477   -1.5321   -1.3151 H   0  0  0  0  0  0  0  0  0  0  0  0
    1.5462   -2.7764   -0.2435 H   0  0  0  0  0  0  0  0  0  0  0  0
    3.6398   -1.7734    0.6605 H   0  0  0  0  0  0  0  0  0  0  0  0
    3.6177    1.6315    2.0223 H   0  0  0  0  0  0  0  0  0  0  0  0
    5.9402    1.3790    3.1565 H   0  0  0  0  0  0  0  0  0  0  0  0
    8.2879    1.3644    2.5405 H   0  0  0  0  0  0  0  0  0  0  0  0
    9.4301    0.2977   -0.8780 H   0  0  0  0  0  0  0  0  0  0  0  0
   12.5706    1.0673    0.6721 H   0  0  0  0  0  0  0  0  0  0  0  0
   12.7701    1.6149   -1.7338 H   0  0  0  0  0  0  0  0  0  0  0  0
   10.9916    1.3947   -1.9946 H   0  0  0  0  0  0  0  0  0  0  0  0
   11.1955   -1.0169   -1.1909 H   0  0  0  0  0  0  0  0  0  0  0  0
   12.9729   -0.7696   -0.9426 H   0  0  0  0  0  0  0  0  0  0  0  0
    7.2228   -0.0633   -1.3958 H   0  0  0  0  0  0  0  0  0  0  0  0
    4.8709   -0.0187   -0.7708 H   0  0  0  0  0  0  0  0  0  0  0  0
  1  2  1  0
  2  3  1  0
  2  4  1  0
  2  5  1  0
  5  6  1  0
  6  7  2  0
  6  8  1  0
  8  9  1  0
  9 10  1  0
 10 11  1  0
 11 12  1  0
 12 13  1  0
 11 14  1  0
 14 15  1  0
 15 16  1  0
 16 17  2  0
 17 18  1  0
 18 19  2  0
 19 20  1  0
 20 21  1  0
 21 22  2  0
 22 23  1  0
 23 24  2  0
 24 25  1  0
 25 26  1  0
 26 27  2  0
 26 28  1  0
 28 29  1  0
 29 30  1  0
 24 31  1  0
 31 32  2  0
 19 33  1  0
 33 34  2  0
 34 35  1  0
 35 36  2  0
 13  8  1  0
 35 14  1  0
 34 16  1  0
 32 21  1  0
 30 28  1  0
  1 37  1  0
  1 38  1  0
  1 39  1  0
  3 40  1  0
  3 41  1  0
  3 42  1  0
  4 43  1  0
  4 44  1  0
  4 45  1  0
  9 46  1  0
  9 47  1  0
 10 48  1  0
 10 49  1  0
 11 50  1  0
 12 51  1  0
 12 52  1  0
 13 53  1  0
 13 54  1  0
 15 55  1  0
 15 56  1  0
 17 57  1  0
 18 58  1  0
 20 59  1  0
 22 60  1  0
 23 61  1  0
 25 62  1  0
 28 63  1  0
 29 64  1  0
 29 65  1  0
 30 66  1  0
 30 67  1  0
 31 68  1  0
 32 69  1  0
M  END
>  <Unnamed: 0>  (78) 
562

>  <ID>  (78) 
TRAIN_0562

>  <Canonical_Smiles>  (78) 
CC(C)(C)OC(=O)N1CCC(CC1)N2Cc3ccc(Nc4ccc(NC(=O)C5CC5)cc4)nc3C2=O

>  <Inhibition>  (78) 
40.7

>  <TDC_conf_true_inhibitor>  (78) 
0

>  <TDC_conf_non_inhibitor>  (78) 
1

>  <split>  (78) 
1

$$$$
78
     RDKit          3D

 23 24  0  0  0  0  0  0  0  0999 V2000
   -3.1476    1.1597   -0.9139 C   0  0  0  0  0  0  0  0  0  0  0  0
   -2.7675   -0.5127   -0.4383 S   0  0  0  0  0  6  0  0  0  0  0  0
   -3.3633   -0.7391    0.8636 O   0  0  0  0  0  0  0  0  0  0  0  0
   -3.0748   -1.3809   -1.5522 O   0  0  0  0  0  0  0  0  0  0  0  0
   -1.1266   -0.4405   -0.2331 N   0  0  0  0  0  0  0  0  0  0  0  0
   -0.5683   -0.3696    1.1299 C   0  0  0  0  0  0  0  0  0  0  0  0
    0.8978   -0.2469    0.8411 C   0  0  0  0  0  0  0  0  0  0  0  0
    1.9711   -0.1683    1.7084 C   0  0  0  0  0  0  0  0  0  0  0  0
    1.7305   -0.2103    3.5795 Br  0  0  0  0  0  0  0  0  0  0  0  0
    3.2613   -0.0510    1.1773 C   0  0  0  0  0  0  0  0  0  0  0  0
    3.4670   -0.0106   -0.2144 C   0  0  0  0  0  0  0  0  0  0  0  0
    2.3861   -0.0866   -1.0932 C   0  0  0  0  0  0  0  0  0  0  0  0
    1.1222   -0.2065   -0.5419 C   0  0  0  0  0  0  0  0  0  0  0  0
   -0.1642   -0.2884   -1.2498 C   0  0  0  0  0  0  0  0  0  0  0  0
   -0.3419   -0.1722   -2.4436 O   0  0  0  0  0  0  0  0  0  0  0  0
   -2.6553    1.3858   -1.8609 H   0  0  0  0  0  0  0  0  0  0  0  0
   -2.8144    1.8373   -0.1256 H   0  0  0  0  0  0  0  0  0  0  0  0
   -4.2306    1.2364   -1.0339 H   0  0  0  0  0  0  0  0  0  0  0  0
   -0.9335    0.5171    1.6559 H   0  0  0  0  0  0  0  0  0  0  0  0
   -0.7780   -1.2898    1.6823 H   0  0  0  0  0  0  0  0  0  0  0  0
    4.1240    0.0110    1.8385 H   0  0  0  0  0  0  0  0  0  0  0  0
    4.4783    0.0811   -0.6063 H   0  0  0  0  0  0  0  0  0  0  0  0
    2.5277   -0.0548   -2.1694 H   0  0  0  0  0  0  0  0  0  0  0  0
  1  2  1  0
  2  3  2  0
  2  4  2  0
  2  5  1  0
  5  6  1  0
  6  7  1  0
  7  8  2  0
  8  9  1  0
  8 10  1  0
 10 11  2  0
 11 12  1  0
 12 13  2  0
 13 14  1  0
 14 15  2  0
 14  5  1  0
 13  7  1  0
  1 16  1  0
  1 17  1  0
  1 18  1  0
  6 19  1  0
  6 20  1  0
 10 21  1  0
 11 22  1  0
 12 23  1  0
M  END
>  <Unnamed: 0>  (79) 
585

>  <ID>  (79) 
TRAIN_0585

>  <Canonical_Smiles>  (79) 
CS(=O)(=O)N1Cc2c(Br)cccc2C1=O

>  <Inhibition>  (79) 
0.0

>  <TDC_conf_true_inhibitor>  (79) 
0

>  <TDC_conf_non_inhibitor>  (79) 
1

>  <split>  (79) 
1

$$$$
79
     RDKit          3D

 32 33  0  0  0  0  0  0  0  0999 V2000
    3.5626   -1.8141   -1.9112 F   0  0  0  0  0  0  0  0  0  0  0  0
    3.6736   -0.9195   -0.9170 C   0  0  0  0  0  0  0  0  0  0  0  0
    4.9521   -0.5373   -0.5158 C   0  0  0  0  0  0  0  0  0  0  0  0
    5.0912    0.3881    0.5119 C   0  0  0  0  0  0  0  0  0  0  0  0
    6.8151    0.9201    1.0716 Br  0  0  0  0  0  0  0  0  0  0  0  0
    3.9661    0.9245    1.1312 C   0  0  0  0  0  0  0  0  0  0  0  0
    2.6938    0.5289    0.7150 C   0  0  0  0  0  0  0  0  0  0  0  0
    1.6450    1.0751    1.3472 F   0  0  0  0  0  0  0  0  0  0  0  0
    2.5229   -0.3983   -0.3154 C   0  0  0  0  0  0  0  0  0  0  0  0
    1.3392   -0.8680   -0.8155 O   0  0  0  0  0  0  0  0  0  0  0  0
    0.1287   -0.3532   -0.2533 C   0  0  0  0  0  0  0  0  0  0  0  0
   -1.0544   -1.0208   -0.9793 C   0  0  0  0  0  0  0  0  0  0  0  0
   -2.4099   -0.6600   -0.5477 N   0  0  0  0  0  0  0  0  0  0  0  0
   -2.7927    0.7176   -0.8998 C   0  0  0  0  0  0  0  0  0  0  0  0
   -4.0456    1.1569   -0.1267 C   0  0  0  0  0  0  0  0  0  0  0  0
   -3.8355    1.2022    1.2921 O   0  0  0  0  0  0  0  0  0  0  0  0
   -2.8377    0.2787    1.7479 C   0  0  0  0  0  0  0  0  0  0  0  0
   -2.7097   -0.9707    0.8607 C   0  0  0  0  0  0  0  0  0  0  0  0
    5.8147   -0.9694   -1.0134 H   0  0  0  0  0  0  0  0  0  0  0  0
    4.0567    1.6482    1.9361 H   0  0  0  0  0  0  0  0  0  0  0  0
    0.0916    0.7311   -0.4000 H   0  0  0  0  0  0  0  0  0  0  0  0
    0.0902   -0.5966    0.8139 H   0  0  0  0  0  0  0  0  0  0  0  0
   -0.9588   -0.8310   -2.0570 H   0  0  0  0  0  0  0  0  0  0  0  0
   -0.9414   -2.1101   -0.8935 H   0  0  0  0  0  0  0  0  0  0  0  0
   -2.9874    0.7747   -1.9763 H   0  0  0  0  0  0  0  0  0  0  0  0
   -1.9875    1.4225   -0.6646 H   0  0  0  0  0  0  0  0  0  0  0  0
   -4.8862    0.4821   -0.3271 H   0  0  0  0  0  0  0  0  0  0  0  0
   -4.3515    2.1591   -0.4437 H   0  0  0  0  0  0  0  0  0  0  0  0
   -1.8827    0.8137    1.8039 H   0  0  0  0  0  0  0  0  0  0  0  0
   -3.1048   -0.0127    2.7688 H   0  0  0  0  0  0  0  0  0  0  0  0
   -1.9829   -1.6692    1.2910 H   0  0  0  0  0  0  0  0  0  0  0  0
   -3.6749   -1.4928    0.8693 H   0  0  0  0  0  0  0  0  0  0  0  0
  1  2  1  0
  2  3  2  0
  3  4  1  0
  4  5  1  0
  4  6  2  0
  6  7  1  0
  7  8  1  0
  7  9  2  0
  9 10  1  0
 10 11  1  0
 11 12  1  0
 12 13  1  0
 13 14  1  0
 14 15  1  0
 15 16  1  0
 16 17  1  0
 17 18  1  0
  9  2  1  0
 18 13  1  0
  3 19  1  0
  6 20  1  0
 11 21  1  0
 11 22  1  0
 12 23  1  0
 12 24  1  0
 14 25  1  0
 14 26  1  0
 15 27  1  0
 15 28  1  0
 17 29  1  0
 17 30  1  0
 18 31  1  0
 18 32  1  0
M  END
>  <Unnamed: 0>  (80) 
594

>  <ID>  (80) 
TRAIN_0594

>  <Canonical_Smiles>  (80) 
Fc1cc(Br)cc(F)c1OCCN2CCOCC2

>  <Inhibition>  (80) 
0.0

>  <TDC_conf_true_inhibitor>  (80) 
0

>  <TDC_conf_non_inhibitor>  (80) 
1

>  <split>  (80) 
1

$$$$
80
     RDKit          3D

 32 34  0  0  0  0  0  0  0  0999 V2000
   -2.1584    2.3335    0.8229 N   0  0  0  0  0  0  0  0  0  0  0  0
   -2.9689    1.2920    0.4560 C   0  0  0  0  0  0  0  0  0  0  0  0
   -4.1386    1.2574    0.8241 O   0  0  0  0  0  0  0  0  0  0  0  0
   -2.3054    0.2513   -0.4725 C   0  0  2  0  0  0  0  0  0  0  0  0
   -3.0908   -1.0594   -0.5222 C   0  0  0  0  0  0  0  0  0  0  0  0
   -2.5484   -1.8160    0.6745 C   0  0  0  0  0  0  0  0  0  0  0  0
   -1.0592   -1.4982    0.6287 C   0  0  0  0  0  0  0  0  0  0  0  0
   -0.9608   -0.1309    0.0733 N   0  0  0  0  0  0  0  0  0  0  0  0
    0.1639    0.1803   -0.6531 C   0  0  0  0  0  0  0  0  0  0  0  0
    0.1382    0.6114   -1.9248 N   0  0  0  0  0  0  0  0  0  0  0  0
    1.6459    0.7633   -2.2751 S   0  0  0  0  0  6  0  0  0  0  0  0
    2.0108   -0.2393   -3.4841 O   0  0  0  0  0  0  0  0  0  0  0  0
    1.9603    2.1976   -2.9296 O   0  0  0  0  0  0  0  0  0  0  0  0
    2.5463    0.4413   -0.9795 C   0  0  0  0  0  0  0  0  0  0  0  0
    3.9150    0.4522   -0.6834 C   0  0  0  0  0  0  0  0  0  0  0  0
    4.2968    0.1188    0.6152 C   0  0  0  0  0  0  0  0  0  0  0  0
    5.9682    0.1197    1.0266 Cl  0  0  0  0  0  0  0  0  0  0  0  0
    3.3545   -0.2044    1.5859 C   0  0  0  0  0  0  0  0  0  0  0  0
    1.9872   -0.2113    1.2785 C   0  0  0  0  0  0  0  0  0  0  0  0
    1.5477    0.1022   -0.0337 C   0  0  0  0  0  0  0  0  0  0  0  0
   -1.1578    2.1853    0.7953 H   0  0  0  0  0  0  0  0  0  0  0  0
   -2.5275    2.9687    1.5174 H   0  0  0  0  0  0  0  0  0  0  0  0
   -2.2715    0.6999   -1.4720 H   0  0  0  0  0  0  0  0  0  0  0  0
   -2.8491   -1.6040   -1.4434 H   0  0  0  0  0  0  0  0  0  0  0  0
   -4.1761   -0.9337   -0.4762 H   0  0  0  0  0  0  0  0  0  0  0  0
   -2.7462   -2.8903    0.6220 H   0  0  0  0  0  0  0  0  0  0  0  0
   -2.9907   -1.4329    1.6018 H   0  0  0  0  0  0  0  0  0  0  0  0
   -0.6282   -1.5588    1.6317 H   0  0  0  0  0  0  0  0  0  0  0  0
   -0.5485   -2.2204   -0.0210 H   0  0  0  0  0  0  0  0  0  0  0  0
    4.6471    0.7163   -1.4419 H   0  0  0  0  0  0  0  0  0  0  0  0
    3.6741   -0.4490    2.5974 H   0  0  0  0  0  0  0  0  0  0  0  0
    1.2699   -0.4424    2.0616 H   0  0  0  0  0  0  0  0  0  0  0  0
  1  2  1  0
  2  3  2  0
  2  4  1  0
  4  5  1  0
  5  6  1  0
  6  7  1  0
  7  8  1  0
  8  9  1  0
  9 10  2  0
 10 11  1  0
 11 12  2  0
 11 13  2  0
 11 14  1  0
 14 15  2  0
 15 16  1  0
 16 17  1  0
 16 18  2  0
 18 19  1  0
 19 20  2  0
  8  4  1  0
 20  9  1  0
 20 14  1  0
  1 21  1  0
  1 22  1  0
  4 23  1  6
  5 24  1  0
  5 25  1  0
  6 26  1  0
  6 27  1  0
  7 28  1  0
  7 29  1  0
 15 30  1  0
 18 31  1  0
 19 32  1  0
M  END
>  <Unnamed: 0>  (81) 
609

>  <ID>  (81) 
TRAIN_0609

>  <Canonical_Smiles>  (81) 
NC(=O)[C@@H]1CCCN1C2=NS(=O)(=O)c3cc(Cl)ccc23

>  <Inhibition>  (81) 
2.97

>  <TDC_conf_true_inhibitor>  (81) 
0

>  <TDC_conf_non_inhibitor>  (81) 
1

>  <split>  (81) 
1

$$$$
81
     RDKit          3D

 31 33  0  0  0  0  0  0  0  0999 V2000
   -4.4462   -1.5125    0.8137 C   0  0  0  0  0  0  0  0  0  0  0  0
   -3.3281   -0.6605    0.2864 C   0  0  0  0  0  0  0  0  0  0  0  0
   -2.0831   -1.1185    0.5477 N   0  0  0  0  0  0  0  0  0  0  0  0
   -1.0301   -0.4095    0.1110 C   0  0  0  0  0  0  0  0  0  0  0  0
    0.2057   -0.9581    0.4167 N   0  0  0  0  0  0  0  0  0  0  0  0
    1.4593   -0.5471    0.1515 C   0  0  0  0  0  0  0  0  0  0  0  0
    2.4869   -1.2646    0.5585 N   0  0  0  0  0  0  0  0  0  0  0  0
    3.6842   -0.6778    0.1897 C   0  0  0  0  0  0  0  0  0  0  0  0
    4.9725   -1.1805    0.4645 C   0  0  0  0  0  0  0  0  0  0  0  0
    6.1009   -0.4781    0.0284 C   0  0  0  0  0  0  0  0  0  0  0  0
    5.9595    0.7140   -0.6750 C   0  0  0  0  0  0  0  0  0  0  0  0
    4.6921    1.2321   -0.9593 C   0  0  0  0  0  0  0  0  0  0  0  0
    3.5673    0.5168   -0.5156 C   0  0  0  0  0  0  0  0  0  0  0  0
    1.9025    0.8839   -0.7033 S   0  0  0  0  0  0  0  0  0  0  0  0
   -1.1626    0.7349   -0.5578 N   0  0  0  0  0  0  0  0  0  0  0  0
   -2.4047    1.1699   -0.7988 C   0  0  0  0  0  0  0  0  0  0  0  0
   -2.4310    2.3608   -1.4662 O   0  0  0  0  0  0  0  0  0  0  0  0
   -3.5572    0.5070   -0.4236 C   0  0  0  0  0  0  0  0  0  0  0  0
   -4.9246    1.0302   -0.7233 C   0  0  0  0  0  0  0  0  0  0  0  0
   -5.1036   -0.9251    1.4621 H   0  0  0  0  0  0  0  0  0  0  0  0
   -4.0541   -2.3458    1.4067 H   0  0  0  0  0  0  0  0  0  0  0  0
   -5.0258   -1.9347   -0.0129 H   0  0  0  0  0  0  0  0  0  0  0  0
    0.0919   -1.8206    0.9257 H   0  0  0  0  0  0  0  0  0  0  0  0
    5.0769   -2.1108    1.0135 H   0  0  0  0  0  0  0  0  0  0  0  0
    7.0929   -0.8689    0.2422 H   0  0  0  0  0  0  0  0  0  0  0  0
    6.8446    1.2514   -1.0092 H   0  0  0  0  0  0  0  0  0  0  0  0
    4.5805    2.1621   -1.5083 H   0  0  0  0  0  0  0  0  0  0  0  0
   -3.3154    2.7437   -1.4030 H   0  0  0  0  0  0  0  0  0  0  0  0
   -5.1689    1.8526   -0.0437 H   0  0  0  0  0  0  0  0  0  0  0  0
   -5.6990    0.2644   -0.6246 H   0  0  0  0  0  0  0  0  0  0  0  0
   -4.9833    1.3894   -1.7565 H   0  0  0  0  0  0  0  0  0  0  0  0
  1  2  1  0
  2  3  2  0
  3  4  1  0
  4  5  1  0
  5  6  1  0
  6  7  2  0
  7  8  1  0
  8  9  2  0
  9 10  1  0
 10 11  2  0
 11 12  1  0
 12 13  2  0
 13 14  1  0
  4 15  2  0
 15 16  1  0
 16 17  1  0
 16 18  2  0
 18 19  1  0
 18  2  1  0
 14  6  1  0
 13  8  1  0
  1 20  1  0
  1 21  1  0
  1 22  1  0
  5 23  1  0
  9 24  1  0
 10 25  1  0
 11 26  1  0
 12 27  1  0
 17 28  1  0
 19 29  1  0
 19 30  1  0
 19 31  1  0
M  END
>  <Unnamed: 0>  (82) 
619

>  <ID>  (82) 
TRAIN_0619

>  <Canonical_Smiles>  (82) 
Cc1nc(Nc2nc3ccccc3s2)nc(O)c1C

>  <Inhibition>  (82) 
0.384

>  <TDC_conf_true_inhibitor>  (82) 
0

>  <TDC_conf_non_inhibitor>  (82) 
1

>  <split>  (82) 
1

$$$$
82
     RDKit          3D

 30 31  0  0  0  0  0  0  0  0999 V2000
   -2.8930    2.2935   -2.1865 O   0  0  0  0  0  0  0  0  0  0  0  0
   -2.0058    1.6732   -1.3889 C   0  0  0  0  0  0  0  0  0  0  0  0
   -0.8290    1.9728   -1.3734 O   0  0  0  0  0  0  0  0  0  0  0  0
   -2.6571    0.6525   -0.5582 C   0  0  0  0  0  0  0  0  0  0  0  0
   -3.8931    0.9136    0.0445 C   0  0  0  0  0  0  0  0  0  0  0  0
   -4.4517   -0.0310    0.9029 C   0  0  0  0  0  0  0  0  0  0  0  0
   -3.7535   -1.2049    1.1364 C   0  0  0  0  0  0  0  0  0  0  0  0
   -2.5644   -1.4942    0.5669 N   0  0  0  0  0  0  0  0  0  0  0  0
   -2.0349   -0.5560   -0.2775 C   0  0  0  0  0  0  0  0  0  0  0  0
   -0.7864   -0.9478   -0.9787 C   0  0  0  0  0  0  0  0  0  0  0  0
   -0.6140   -0.8172   -2.1802 O   0  0  0  0  0  0  0  0  0  0  0  0
    0.0850   -1.4538   -0.0743 O   0  0  0  0  0  0  0  0  0  0  0  0
    1.3730   -1.8157   -0.5810 C   0  0  0  0  0  0  0  0  0  0  0  0
    2.3945   -0.8414   -0.0536 C   0  0  0  0  0  0  0  0  0  0  0  0
    3.2395   -1.1901    1.0089 C   0  0  0  0  0  0  0  0  0  0  0  0
    4.1753   -0.2764    1.4977 C   0  0  0  0  0  0  0  0  0  0  0  0
    4.2707    0.9950    0.9345 C   0  0  0  0  0  0  0  0  0  0  0  0
    3.4287    1.3558   -0.1155 C   0  0  0  0  0  0  0  0  0  0  0  0
    2.4939    0.4435   -0.6068 C   0  0  0  0  0  0  0  0  0  0  0  0
   -2.3460    2.9137   -2.7148 H   0  0  0  0  0  0  0  0  0  0  0  0
   -4.4117    1.8514   -0.1404 H   0  0  0  0  0  0  0  0  0  0  0  0
   -5.4065    0.1493    1.3863 H   0  0  0  0  0  0  0  0  0  0  0  0
   -4.1465   -1.9677    1.8039 H   0  0  0  0  0  0  0  0  0  0  0  0
    1.4192   -1.8589   -1.6758 H   0  0  0  0  0  0  0  0  0  0  0  0
    1.5909   -2.8285   -0.2236 H   0  0  0  0  0  0  0  0  0  0  0  0
    3.1709   -2.1746    1.4658 H   0  0  0  0  0  0  0  0  0  0  0  0
    4.8271   -0.5554    2.3213 H   0  0  0  0  0  0  0  0  0  0  0  0
    4.9968    1.7069    1.3174 H   0  0  0  0  0  0  0  0  0  0  0  0
    3.4934    2.3494   -0.5510 H   0  0  0  0  0  0  0  0  0  0  0  0
    1.8346    0.7429   -1.4207 H   0  0  0  0  0  0  0  0  0  0  0  0
  1  2  1  0
  2  3  2  0
  2  4  1  0
  4  5  2  0
  5  6  1  0
  6  7  2  0
  7  8  1  0
  8  9  2  0
  9 10  1  0
 10 11  2  0
 10 12  1  0
 12 13  1  0
 13 14  1  0
 14 15  2  0
 15 16  1  0
 16 17  2  0
 17 18  1  0
 18 19  2  0
  9  4  1  0
 19 14  1  0
  1 20  1  0
  5 21  1  0
  6 22  1  0
  7 23  1  0
 13 24  1  0
 13 25  1  0
 15 26  1  0
 16 27  1  0
 17 28  1  0
 18 29  1  0
 19 30  1  0
M  END
>  <Unnamed: 0>  (83) 
621

>  <ID>  (83) 
TRAIN_0621

>  <Canonical_Smiles>  (83) 
OC(=O)c1cccnc1C(=O)OCc2ccccc2

>  <Inhibition>  (83) 
0.0

>  <TDC_conf_true_inhibitor>  (83) 
0

>  <TDC_conf_non_inhibitor>  (83) 
1

>  <split>  (83) 
1

$$$$
83
     RDKit          3D

 34 35  0  0  0  0  0  0  0  0999 V2000
   -1.8308    1.1153    2.9161 C   0  0  0  0  0  0  0  0  0  0  0  0
   -2.7514    0.0417    2.3648 C   0  0  0  0  0  0  0  0  0  0  0  0
   -2.0668   -0.8590    1.5001 O   0  0  0  0  0  0  0  0  0  0  0  0
   -1.7799   -0.3198    0.2128 C   0  0  0  0  0  0  0  0  0  0  0  0
   -2.2005   -1.2199   -0.8104 O   0  0  0  0  0  0  0  0  0  0  0  0
   -3.6148   -1.2271   -0.9646 C   0  0  0  0  0  0  0  0  0  0  0  0
   -3.9725   -2.2532   -2.0220 C   0  0  0  0  0  0  0  0  0  0  0  0
   -0.2964   -0.2408    0.1040 C   0  0  0  0  0  0  0  0  0  0  0  0
    0.2505    1.0118    0.0661 O   0  0  0  0  0  0  0  0  0  0  0  0
    1.6014    0.8621   -0.0260 C   0  0  0  0  0  0  0  0  0  0  0  0
    2.4461    1.8979   -0.0846 N   0  0  0  0  0  0  0  0  0  0  0  0
    3.7220    1.5012   -0.1844 C   0  0  0  0  0  0  0  0  0  0  0  0
    4.9338    2.8012   -0.2594 S   0  0  0  0  0  0  0  0  0  0  0  0
    6.1194    2.0360   -1.3876 C   0  0  0  0  0  0  0  0  0  0  0  0
    4.1718    0.2258   -0.2186 N   0  0  0  0  0  0  0  0  0  0  0  0
    3.2745   -0.7834   -0.1446 C   0  0  0  0  0  0  0  0  0  0  0  0
    1.9244   -0.4854   -0.0476 C   0  0  0  0  0  0  0  0  0  0  0  0
    0.7032   -1.1934    0.0411 C   0  0  0  0  0  0  0  0  0  0  0  0
   -1.4721    1.7755    2.1212 H   0  0  0  0  0  0  0  0  0  0  0  0
   -0.9498    0.6658    3.3849 H   0  0  0  0  0  0  0  0  0  0  0  0
   -2.3538    1.7278    3.6576 H   0  0  0  0  0  0  0  0  0  0  0  0
   -3.6173    0.4802    1.8552 H   0  0  0  0  0  0  0  0  0  0  0  0
   -3.1360   -0.5550    3.1977 H   0  0  0  0  0  0  0  0  0  0  0  0
   -2.2318    0.6679    0.0495 H   0  0  0  0  0  0  0  0  0  0  0  0
   -3.9558   -0.2352   -1.2797 H   0  0  0  0  0  0  0  0  0  0  0  0
   -4.1006   -1.4908   -0.0197 H   0  0  0  0  0  0  0  0  0  0  0  0
   -3.4640   -2.0305   -2.9674 H   0  0  0  0  0  0  0  0  0  0  0  0
   -5.0522   -2.2756   -2.1957 H   0  0  0  0  0  0  0  0  0  0  0  0
   -3.6447   -3.2515   -1.7127 H   0  0  0  0  0  0  0  0  0  0  0  0
    5.6348    1.7515   -2.3249 H   0  0  0  0  0  0  0  0  0  0  0  0
    6.5846    1.1571   -0.9332 H   0  0  0  0  0  0  0  0  0  0  0  0
    6.9100    2.7576   -1.6129 H   0  0  0  0  0  0  0  0  0  0  0  0
    3.6684   -1.7925   -0.1711 H   0  0  0  0  0  0  0  0  0  0  0  0
    0.5462   -2.2635    0.0557 H   0  0  0  0  0  0  0  0  0  0  0  0
  1  2  1  0
  2  3  1  0
  3  4  1  0
  4  5  1  0
  5  6  1  0
  6  7  1  0
  4  8  1  0
  8  9  1  0
  9 10  1  0
 10 11  2  0
 11 12  1  0
 12 13  1  0
 13 14  1  0
 12 15  2  0
 15 16  1  0
 16 17  2  0
 17 18  1  0
 18  8  2  0
 17 10  1  0
  1 19  1  0
  1 20  1  0
  1 21  1  0
  2 22  1  0
  2 23  1  0
  4 24  1  0
  6 25  1  0
  6 26  1  0
  7 27  1  0
  7 28  1  0
  7 29  1  0
 14 30  1  0
 14 31  1  0
 14 32  1  0
 16 33  1  0
 18 34  1  0
M  END
>  <Unnamed: 0>  (84) 
622

>  <ID>  (84) 
TRAIN_0622

>  <Canonical_Smiles>  (84) 
CCOC(OCC)c1oc2nc(SC)ncc2c1

>  <Inhibition>  (84) 
0.0

>  <TDC_conf_true_inhibitor>  (84) 
0

>  <TDC_conf_non_inhibitor>  (84) 
1

>  <split>  (84) 
1

$$$$
84
     RDKit          3D

 39 40  0  0  0  0  0  0  0  0999 V2000
   -6.7894    0.3987    1.3664 C   0  0  0  0  0  0  0  0  0  0  0  0
   -5.5325    0.6603    0.5599 C   0  0  0  0  0  0  0  0  0  0  0  0
   -4.4854   -0.1682    1.0819 O   0  0  0  0  0  0  0  0  0  0  0  0
   -3.2823   -0.0092    0.4568 C   0  0  0  0  0  0  0  0  0  0  0  0
   -3.0741    0.7601   -0.4694 O   0  0  0  0  0  0  0  0  0  0  0  0
   -2.2671   -0.9359    1.0882 C   0  0  0  0  0  0  0  0  0  0  0  0
   -0.8843   -0.8070    0.5036 C   0  0  0  0  0  0  0  0  0  0  0  0
    0.0538    0.0909    0.9974 C   0  0  0  0  0  0  0  0  0  0  0  0
   -0.2349    0.9999    2.1573 C   0  0  0  0  0  0  0  0  0  0  0  0
    1.2951    0.2044    0.4785 N   0  0  0  0  0  0  0  0  0  0  0  0
    1.6255   -0.5572   -0.5683 C   0  0  0  0  0  0  0  0  0  0  0  0
    2.8761   -0.5058   -1.1618 N   0  0  0  0  0  0  0  0  0  0  0  0
    3.9630    0.2402   -0.8989 C   0  0  0  0  0  0  0  0  0  0  0  0
    5.0495    0.1145   -1.6372 N   0  0  0  0  0  0  0  0  0  0  0  0
    6.0551    0.9661   -1.2132 C   0  0  0  0  0  0  0  0  0  0  0  0
    7.3505    0.9526   -1.9369 C   0  0  0  0  0  0  0  0  0  0  0  0
    5.7231    1.7463   -0.1272 C   0  0  0  0  0  0  0  0  0  0  0  0
    4.1228    1.4087    0.3636 S   0  0  0  0  0  0  0  0  0  0  0  0
    0.7736   -1.4310   -1.1222 N   0  0  0  0  0  0  0  0  0  0  0  0
   -0.4678   -1.5419   -0.5998 C   0  0  0  0  0  0  0  0  0  0  0  0
   -1.3647   -2.5270   -1.2931 C   0  0  0  0  0  0  0  0  0  0  0  0
   -7.0709   -0.6581    1.3107 H   0  0  0  0  0  0  0  0  0  0  0  0
   -6.6233    0.6283    2.4242 H   0  0  0  0  0  0  0  0  0  0  0  0
   -7.6217    1.0059    0.9996 H   0  0  0  0  0  0  0  0  0  0  0  0
   -5.7090    0.4103   -0.4921 H   0  0  0  0  0  0  0  0  0  0  0  0
   -5.2494    1.7154    0.6470 H   0  0  0  0  0  0  0  0  0  0  0  0
   -2.6266   -1.9653    0.9799 H   0  0  0  0  0  0  0  0  0  0  0  0
   -2.2390   -0.7356    2.1650 H   0  0  0  0  0  0  0  0  0  0  0  0
    0.5991    1.6891    2.3285 H   0  0  0  0  0  0  0  0  0  0  0  0
   -0.3787    0.4162    3.0716 H   0  0  0  0  0  0  0  0  0  0  0  0
   -1.1267    1.6034    1.9628 H   0  0  0  0  0  0  0  0  0  0  0  0
    2.9217   -1.1435   -1.9408 H   0  0  0  0  0  0  0  0  0  0  0  0
    7.9207    1.8676   -1.7474 H   0  0  0  0  0  0  0  0  0  0  0  0
    7.9525    0.0972   -1.6158 H   0  0  0  0  0  0  0  0  0  0  0  0
    7.1860    0.8741   -3.0162 H   0  0  0  0  0  0  0  0  0  0  0  0
    6.3270    2.4792    0.3874 H   0  0  0  0  0  0  0  0  0  0  0  0
   -1.5963   -3.3648   -0.6284 H   0  0  0  0  0  0  0  0  0  0  0  0
   -2.2931   -2.0452   -1.6139 H   0  0  0  0  0  0  0  0  0  0  0  0
   -0.8779   -2.9340   -2.1860 H   0  0  0  0  0  0  0  0  0  0  0  0
  1  2  1  0
  2  3  1  0
  3  4  1  0
  4  5  2  0
  4  6  1  0
  6  7  1  0
  7  8  2  0
  8  9  1  0
  8 10  1  0
 10 11  2  0
 11 12  1  0
 12 13  1  0
 13 14  2  0
 14 15  1  0
 15 16  1  0
 15 17  2  0
 17 18  1  0
 11 19  1  0
 19 20  2  0
 20 21  1  0
 20  7  1  0
 18 13  1  0
  1 22  1  0
  1 23  1  0
  1 24  1  0
  2 25  1  0
  2 26  1  0
  6 27  1  0
  6 28  1  0
  9 29  1  0
  9 30  1  0
  9 31  1  0
 12 32  1  0
 16 33  1  0
 16 34  1  0
 16 35  1  0
 17 36  1  0
 21 37  1  0
 21 38  1  0
 21 39  1  0
M  END
>  <Unnamed: 0>  (85) 
624

>  <ID>  (85) 
TRAIN_0624

>  <Canonical_Smiles>  (85) 
CCOC(=O)Cc1c(C)nc(Nc2nc(C)cs2)nc1C

>  <Inhibition>  (85) 
29.3

>  <TDC_conf_true_inhibitor>  (85) 
1

>  <TDC_conf_non_inhibitor>  (85) 
0

>  <split>  (85) 
1

$$$$
85
     RDKit          3D

 27 28  0  0  0  0  0  0  0  0999 V2000
    5.4522    0.2004   -0.4789 C   0  0  0  0  0  0  0  0  0  0  0  0
    4.0295    0.5637   -0.2644 C   0  0  0  0  0  0  0  0  0  0  0  0
    3.5329    1.8020    0.0798 C   0  0  0  0  0  0  0  0  0  0  0  0
    1.8319    1.7296    0.2134 S   0  0  0  0  0  0  0  0  0  0  0  0
    1.8536    0.0514   -0.1952 C   0  0  0  0  0  0  0  0  0  0  0  0
    0.7855   -0.7598   -0.2970 N   0  0  0  0  0  0  0  0  0  0  0  0
   -0.5680   -0.5278   -0.1197 C   0  0  0  0  0  0  0  0  0  0  0  0
   -1.0542    0.6737    0.2157 N   0  0  0  0  0  0  0  0  0  0  0  0
   -2.3849    0.8160    0.3677 C   0  0  0  0  0  0  0  0  0  0  0  0
   -2.8926    2.1759    0.7408 C   0  0  0  0  0  0  0  0  0  0  0  0
   -3.2577   -0.2325    0.1909 C   0  0  0  0  0  0  0  0  0  0  0  0
   -2.6963   -1.4485   -0.1501 C   0  0  0  0  0  0  0  0  0  0  0  0
   -1.3552   -1.5974   -0.3097 N   0  0  0  0  0  0  0  0  0  0  0  0
   -3.6108   -2.6409   -0.3711 C   0  0  0  0  0  0  0  0  0  0  0  0
   -4.4901   -2.8193    0.6587 F   0  0  0  0  0  0  0  0  0  0  0  0
   -4.3835   -2.5020   -1.4873 F   0  0  0  0  0  0  0  0  0  0  0  0
   -2.9604   -3.8296   -0.5114 F   0  0  0  0  0  0  0  0  0  0  0  0
    3.0661   -0.4187   -0.4169 N   0  0  0  0  0  0  0  0  0  0  0  0
    6.1125    1.0597   -0.3254 H   0  0  0  0  0  0  0  0  0  0  0  0
    5.5993   -0.1656   -1.4997 H   0  0  0  0  0  0  0  0  0  0  0  0
    5.7504   -0.5885    0.2185 H   0  0  0  0  0  0  0  0  0  0  0  0
    4.0727    2.7212    0.2546 H   0  0  0  0  0  0  0  0  0  0  0  0
    0.9559   -1.7219   -0.5451 H   0  0  0  0  0  0  0  0  0  0  0  0
   -3.5722    2.5507   -0.0309 H   0  0  0  0  0  0  0  0  0  0  0  0
   -2.0661    2.8868    0.8414 H   0  0  0  0  0  0  0  0  0  0  0  0
   -3.4228    2.1325    1.6972 H   0  0  0  0  0  0  0  0  0  0  0  0
   -4.3279   -0.1114    0.3133 H   0  0  0  0  0  0  0  0  0  0  0  0
  1  2  1  0
  2  3  2  0
  3  4  1  0
  4  5  1  0
  5  6  1  0
  6  7  1  0
  7  8  2  0
  8  9  1  0
  9 10  1  0
  9 11  2  0
 11 12  1  0
 12 13  2  0
 12 14  1  0
 14 15  1  0
 14 16  1  0
 14 17  1  0
  5 18  2  0
 18  2  1  0
 13  7  1  0
  1 19  1  0
  1 20  1  0
  1 21  1  0
  3 22  1  0
  6 23  1  0
 10 24  1  0
 10 25  1  0
 10 26  1  0
 11 27  1  0
M  END
>  <Unnamed: 0>  (86) 
675

>  <ID>  (86) 
TRAIN_0675

>  <Canonical_Smiles>  (86) 
Cc1csc(Nc2nc(C)cc(n2)C(F)(F)F)n1

>  <Inhibition>  (86) 
11.4

>  <TDC_conf_true_inhibitor>  (86) 
0

>  <TDC_conf_non_inhibitor>  (86) 
1

>  <split>  (86) 
1

$$$$
86
     RDKit          3D

 55 57  0  0  0  0  0  0  0  0999 V2000
   -3.1162    3.5869   -1.5939 C   0  0  0  0  0  0  0  0  0  0  0  0
   -1.6448    3.3672   -1.2978 C   0  0  0  0  0  0  0  0  0  0  0  0
   -1.3390    1.9648   -1.3310 O   0  0  0  0  0  0  0  0  0  0  0  0
   -1.5288    1.2846   -0.1579 C   0  0  0  0  0  0  0  0  0  0  0  0
   -1.9677    1.7889    0.8674 O   0  0  0  0  0  0  0  0  0  0  0  0
   -1.1677   -0.2092   -0.3459 C   0  0  0  0  0  0  0  0  0  0  0  0
   -1.2556   -0.9918    0.8405 O   0  0  0  0  0  0  0  0  0  0  0  0
   -2.4298   -1.7787    1.0711 C   0  0  0  0  0  0  0  0  0  0  0  0
   -2.2436   -2.3603    2.4806 C   0  0  0  0  0  0  0  0  0  0  0  0
   -2.5088   -2.9395    0.0717 C   0  0  0  0  0  0  0  0  0  0  0  0
   -3.7159   -0.9458    1.0498 C   0  0  0  0  0  0  0  0  0  0  0  0
    0.2473   -0.3216   -0.8865 C   0  0  0  0  0  0  0  0  0  0  0  0
    0.4443   -0.7146   -2.3407 C   0  0  0  0  0  0  0  0  0  0  0  0
   -0.7681   -0.9700   -3.2131 C   0  0  0  0  0  0  0  0  0  0  0  0
    1.5934   -0.8617   -2.9317 N   0  0  0  0  0  0  0  0  0  0  0  0
    2.7116   -0.6366   -2.1883 C   0  0  0  0  0  0  0  0  0  0  0  0
    4.0494   -0.7010   -2.4883 C   0  0  0  0  0  0  0  0  0  0  0  0
    4.8282   -1.1578   -4.1283 Br  0  0  0  0  0  0  0  0  0  0  0  0
    4.7397   -0.3507   -1.3182 C   0  0  0  0  0  0  0  0  0  0  0  0
    6.2034   -0.2600   -1.0946 C   0  0  0  0  0  0  0  0  0  0  0  0
    3.8920   -0.0748   -0.3212 N   0  0  0  0  0  0  0  0  0  0  0  0
    2.6452   -0.2568   -0.8481 N   0  0  0  0  0  0  0  0  0  0  0  0
    1.4024   -0.0990   -0.2043 C   0  0  0  0  0  0  0  0  0  0  0  0
    1.3985    0.3237    1.2117 C   0  0  0  0  0  0  0  0  0  0  0  0
    1.4327   -0.6322    2.2366 C   0  0  0  0  0  0  0  0  0  0  0  0
    1.4246   -0.2326    3.5750 C   0  0  0  0  0  0  0  0  0  0  0  0
    1.3909    1.1237    3.8912 C   0  0  0  0  0  0  0  0  0  0  0  0
    1.3790    1.6162    5.5400 Cl  0  0  0  0  0  0  0  0  0  0  0  0
    1.3712    2.0844    2.8819 C   0  0  0  0  0  0  0  0  0  0  0  0
    1.3796    1.6856    1.5429 C   0  0  0  0  0  0  0  0  0  0  0  0
   -3.3495    4.6548   -1.6291 H   0  0  0  0  0  0  0  0  0  0  0  0
   -3.3867    3.1341   -2.5534 H   0  0  0  0  0  0  0  0  0  0  0  0
   -3.7454    3.1166   -0.8317 H   0  0  0  0  0  0  0  0  0  0  0  0
   -1.3545    3.8160   -0.3409 H   0  0  0  0  0  0  0  0  0  0  0  0
   -1.0375    3.8445   -2.0737 H   0  0  0  0  0  0  0  0  0  0  0  0
   -1.8961   -0.5862   -1.0638 H   0  0  0  0  0  0  0  0  0  0  0  0
   -1.3236   -2.9537    2.5395 H   0  0  0  0  0  0  0  0  0  0  0  0
   -3.0850   -2.9968    2.7737 H   0  0  0  0  0  0  0  0  0  0  0  0
   -2.1413   -1.5586    3.2214 H   0  0  0  0  0  0  0  0  0  0  0  0
   -1.5526   -3.4719    0.0169 H   0  0  0  0  0  0  0  0  0  0  0  0
   -3.2906   -3.6544    0.3502 H   0  0  0  0  0  0  0  0  0  0  0  0
   -2.7327   -2.5897   -0.9406 H   0  0  0  0  0  0  0  0  0  0  0  0
   -4.5872   -1.5531    1.3182 H   0  0  0  0  0  0  0  0  0  0  0  0
   -3.9055   -0.5151    0.0613 H   0  0  0  0  0  0  0  0  0  0  0  0
   -3.6524   -0.1102    1.7551 H   0  0  0  0  0  0  0  0  0  0  0  0
   -1.3042   -1.8515   -2.8524 H   0  0  0  0  0  0  0  0  0  0  0  0
   -0.4596   -1.1606   -4.2461 H   0  0  0  0  0  0  0  0  0  0  0  0
   -1.4267   -0.0981   -3.2162 H   0  0  0  0  0  0  0  0  0  0  0  0
    6.4358    0.0375   -0.0666 H   0  0  0  0  0  0  0  0  0  0  0  0
    6.6800   -1.2281   -1.2791 H   0  0  0  0  0  0  0  0  0  0  0  0
    6.6485    0.4806   -1.7667 H   0  0  0  0  0  0  0  0  0  0  0  0
    1.4542   -1.6932    1.9986 H   0  0  0  0  0  0  0  0  0  0  0  0
    1.4427   -0.9822    4.3609 H   0  0  0  0  0  0  0  0  0  0  0  0
    1.3491    3.1420    3.1292 H   0  0  0  0  0  0  0  0  0  0  0  0
    1.3736    2.4455    0.7652 H   0  0  0  0  0  0  0  0  0  0  0  0
  1  2  1  0
  2  3  1  0
  3  4  1  0
  4  5  2  0
  4  6  1  0
  6  7  1  0
  7  8  1  0
  8  9  1  0
  8 10  1  0
  8 11  1  0
  6 12  1  0
 12 13  1  0
 13 14  1  0
 13 15  2  0
 15 16  1  0
 16 17  2  0
 17 18  1  0
 17 19  1  0
 19 20  1  0
 19 21  2  0
 21 22  1  0
 22 23  1  0
 23 24  1  0
 24 25  2  0
 25 26  1  0
 26 27  2  0
 27 28  1  0
 27 29  1  0
 29 30  2  0
 23 12  2  0
 22 16  1  0
 30 24  1  0
  1 31  1  0
  1 32  1  0
  1 33  1  0
  2 34  1  0
  2 35  1  0
  6 36  1  0
  9 37  1  0
  9 38  1  0
  9 39  1  0
 10 40  1  0
 10 41  1  0
 10 42  1  0
 11 43  1  0
 11 44  1  0
 11 45  1  0
 14 46  1  0
 14 47  1  0
 14 48  1  0
 20 49  1  0
 20 50  1  0
 20 51  1  0
 25 52  1  0
 26 53  1  0
 29 54  1  0
 30 55  1  0
M  END
>  <Unnamed: 0>  (87) 
632

>  <ID>  (87) 
TRAIN_0632

>  <Canonical_Smiles>  (87) 
CCOC(=O)C(OC(C)(C)C)c1c(C)nc2c(Br)c(C)nn2c1c3ccc(Cl)cc3

>  <Inhibition>  (87) 
41.4

>  <TDC_conf_true_inhibitor>  (87) 
1

>  <TDC_conf_non_inhibitor>  (87) 
0

>  <split>  (87) 
1

$$$$
87
     RDKit          3D

 49 52  0  0  0  0  0  0  0  0999 V2000
   -1.2332    0.8742    1.5702 C   0  0  0  0  0  0  0  0  0  0  0  0
   -2.2244   -0.0100    0.8847 C   0  0  0  0  0  0  0  0  0  0  0  0
   -3.5108    0.3209    0.4773 C   0  0  0  0  0  0  0  0  0  0  0  0
   -4.1492    1.6794    0.5198 C   0  0  0  0  0  0  0  0  0  0  0  0
   -3.7462    2.5438   -0.6528 C   0  0  0  0  0  0  0  0  0  0  0  0
   -2.8407    2.3648   -1.4505 O   0  0  0  0  0  0  0  0  0  0  0  0
   -4.5093    3.6559   -0.7432 O   0  0  0  0  0  0  0  0  0  0  0  0
   -4.1436   -0.8850    0.0565 C   0  0  0  0  0  0  0  0  0  0  0  0
   -5.4425   -1.1871   -0.4105 C   0  0  0  0  0  0  0  0  0  0  0  0
   -5.7819   -2.5036   -0.7334 C   0  0  0  0  0  0  0  0  0  0  0  0
   -4.8460   -3.5198   -0.6028 C   0  0  0  0  0  0  0  0  0  0  0  0
   -3.5518   -3.2456   -0.1534 C   0  0  0  0  0  0  0  0  0  0  0  0
   -3.2128   -1.9185    0.1805 C   0  0  0  0  0  0  0  0  0  0  0  0
   -1.9966   -1.3559    0.5820 N   0  0  0  0  0  0  0  0  0  0  0  0
   -0.7641   -2.0562    0.6536 C   0  0  0  0  0  0  0  0  0  0  0  0
   -0.7956   -3.2609    0.9018 O   0  0  0  0  0  0  0  0  0  0  0  0
    0.5632   -1.4548    0.4247 C   0  0  0  0  0  0  0  0  0  0  0  0
    1.6681   -1.8808    1.1516 C   0  0  0  0  0  0  0  0  0  0  0  0
    2.9153   -1.3113    0.8875 C   0  0  0  0  0  0  0  0  0  0  0  0
    3.0485   -0.3286   -0.0963 C   0  0  0  0  0  0  0  0  0  0  0  0
    1.9749    0.0501   -0.8274 N   0  0  0  0  0  0  0  0  0  0  0  0
    0.7697   -0.5155   -0.5692 C   0  0  0  0  0  0  0  0  0  0  0  0
    4.2832    0.2369   -0.3808 N   0  0  0  0  0  0  0  0  0  0  0  0
    4.3314    1.1492   -1.5357 C   0  0  0  0  0  0  0  0  0  0  0  0
    5.7792    1.6152   -1.7548 C   0  0  0  0  0  0  0  0  0  0  0  0
    6.3432    2.3188   -0.6354 O   0  0  0  0  0  0  0  0  0  0  0  0
    5.6892    2.0252    0.6062 C   0  0  0  0  0  0  0  0  0  0  0  0
    5.2018    0.5703    0.7208 C   0  0  0  0  0  0  0  0  0  0  0  0
   -0.5550    0.3097    2.2158 H   0  0  0  0  0  0  0  0  0  0  0  0
   -1.7455    1.5920    2.2195 H   0  0  0  0  0  0  0  0  0  0  0  0
   -0.6539    1.4473    0.8412 H   0  0  0  0  0  0  0  0  0  0  0  0
   -3.8705    2.2010    1.4415 H   0  0  0  0  0  0  0  0  0  0  0  0
   -5.2401    1.5782    0.5121 H   0  0  0  0  0  0  0  0  0  0  0  0
   -4.1451    4.1243   -1.5244 H   0  0  0  0  0  0  0  0  0  0  0  0
   -6.1876   -0.4041   -0.5173 H   0  0  0  0  0  0  0  0  0  0  0  0
   -6.7836   -2.7312   -1.0885 H   0  0  0  0  0  0  0  0  0  0  0  0
   -5.1167   -4.5416   -0.8587 H   0  0  0  0  0  0  0  0  0  0  0  0
   -2.8297   -4.0537   -0.0724 H   0  0  0  0  0  0  0  0  0  0  0  0
    1.5713   -2.6565    1.9069 H   0  0  0  0  0  0  0  0  0  0  0  0
    3.7822   -1.6666    1.4348 H   0  0  0  0  0  0  0  0  0  0  0  0
   -0.0335   -0.1707   -1.2159 H   0  0  0  0  0  0  0  0  0  0  0  0
    3.6925    2.0230   -1.3540 H   0  0  0  0  0  0  0  0  0  0  0  0
    3.9849    0.6395   -2.4426 H   0  0  0  0  0  0  0  0  0  0  0  0
    6.4274    0.7547   -1.9584 H   0  0  0  0  0  0  0  0  0  0  0  0
    5.8356    2.2803   -2.6223 H   0  0  0  0  0  0  0  0  0  0  0  0
    6.3987    2.2459    1.4101 H   0  0  0  0  0  0  0  0  0  0  0  0
    4.8484    2.7204    0.7164 H   0  0  0  0  0  0  0  0  0  0  0  0
    6.0607   -0.1077    0.6582 H   0  0  0  0  0  0  0  0  0  0  0  0
    4.7402    0.4447    1.7067 H   0  0  0  0  0  0  0  0  0  0  0  0
  1  2  1  0
  2  3  2  0
  3  4  1  0
  4  5  1  0
  5  6  2  0
  5  7  1  0
  3  8  1  0
  8  9  2  0
  9 10  1  0
 10 11  2  0
 11 12  1  0
 12 13  2  0
 13 14  1  0
 14 15  1  0
 15 16  2  0
 15 17  1  0
 17 18  2  0
 18 19  1  0
 19 20  2  0
 20 21  1  0
 21 22  2  0
 20 23  1  0
 23 24  1  0
 24 25  1  0
 25 26  1  0
 26 27  1  0
 27 28  1  0
 14  2  1  0
 13  8  1  0
 22 17  1  0
 28 23  1  0
  1 29  1  0
  1 30  1  0
  1 31  1  0
  4 32  1  0
  4 33  1  0
  7 34  1  0
  9 35  1  0
 10 36  1  0
 11 37  1  0
 12 38  1  0
 18 39  1  0
 19 40  1  0
 22 41  1  0
 24 42  1  0
 24 43  1  0
 25 44  1  0
 25 45  1  0
 27 46  1  0
 27 47  1  0
 28 48  1  0
 28 49  1  0
M  END
>  <Unnamed: 0>  (88) 
634

>  <ID>  (88) 
TRAIN_0634

>  <Canonical_Smiles>  (88) 
Cc1c(CC(=O)O)c2ccccc2n1C(=O)c3ccc(nc3)N4CCOCC4

>  <Inhibition>  (88) 
27.4

>  <TDC_conf_true_inhibitor>  (88) 
0

>  <TDC_conf_non_inhibitor>  (88) 
1

>  <split>  (88) 
1

$$$$
88
     RDKit          3D

 38 40  0  0  0  0  0  0  0  0999 V2000
    7.1529    1.4367    1.3929 F   0  0  0  0  0  0  0  0  0  0  0  0
    6.1016    0.7389    0.9444 C   0  0  0  0  0  0  0  0  0  0  0  0
    5.0099    1.4157    0.4096 C   0  0  0  0  0  0  0  0  0  0  0  0
    3.9109    0.6930   -0.0606 C   0  0  0  0  0  0  0  0  0  0  0  0
    3.9107   -0.7067    0.0217 C   0  0  0  0  0  0  0  0  0  0  0  0
    5.0262   -1.3767    0.5441 C   0  0  0  0  0  0  0  0  0  0  0  0
    6.1218   -0.6497    1.0127 C   0  0  0  0  0  0  0  0  0  0  0  0
    2.7726   -1.5173   -0.4818 C   0  0  0  0  0  0  0  0  0  0  0  0
    3.0009   -2.6026   -1.0096 O   0  0  0  0  0  0  0  0  0  0  0  0
    1.3702   -1.0464   -0.3645 C   0  0  0  0  0  0  0  0  0  0  0  0
    0.9247   -0.3187    0.7381 C   0  0  0  0  0  0  0  0  0  0  0  0
   -0.4126    0.0979    0.8084 C   0  0  0  0  0  0  0  0  0  0  0  0
   -1.3454   -0.2083   -0.1966 C   0  0  0  0  0  0  0  0  0  0  0  0
   -0.8673   -0.9580   -1.2850 C   0  0  0  0  0  0  0  0  0  0  0  0
    0.4657   -1.3806   -1.3703 C   0  0  0  0  0  0  0  0  0  0  0  0
   -2.6642    0.2111   -0.1305 N   0  0  0  0  0  0  0  0  0  0  0  0
   -3.7285   -0.5385   -0.8230 C   0  0  0  0  0  0  0  0  0  0  0  0
   -5.0820   -0.4167   -0.0848 C   0  0  0  0  0  0  0  0  0  0  0  0
   -5.5575    0.9573    0.1521 N   0  0  0  0  0  0  0  0  0  0  0  0
   -4.4294    1.8892    0.3401 C   0  0  0  0  0  0  0  0  0  0  0  0
   -3.1080    1.2452    0.8185 C   0  0  0  0  0  0  0  0  0  0  0  0
    5.0269    2.4999    0.3536 H   0  0  0  0  0  0  0  0  0  0  0  0
    3.0760    1.2306   -0.5032 H   0  0  0  0  0  0  0  0  0  0  0  0
    5.0418   -2.4644    0.5839 H   0  0  0  0  0  0  0  0  0  0  0  0
    6.9894   -1.1571    1.4227 H   0  0  0  0  0  0  0  0  0  0  0  0
    1.5900   -0.0820    1.5639 H   0  0  0  0  0  0  0  0  0  0  0  0
   -0.7180    0.6477    1.6946 H   0  0  0  0  0  0  0  0  0  0  0  0
   -1.5272   -1.2157   -2.1093 H   0  0  0  0  0  0  0  0  0  0  0  0
    0.7905   -1.9651   -2.2286 H   0  0  0  0  0  0  0  0  0  0  0  0
   -3.8301   -0.1557   -1.8456 H   0  0  0  0  0  0  0  0  0  0  0  0
   -3.4848   -1.6064   -0.8803 H   0  0  0  0  0  0  0  0  0  0  0  0
   -4.9962   -0.9120    0.8908 H   0  0  0  0  0  0  0  0  0  0  0  0
   -5.8510   -0.9654   -0.6403 H   0  0  0  0  0  0  0  0  0  0  0  0
   -6.0997    1.2724   -0.6518 H   0  0  0  0  0  0  0  0  0  0  0  0
   -4.7362    2.6646    1.0501 H   0  0  0  0  0  0  0  0  0  0  0  0
   -4.2397    2.3922   -0.6172 H   0  0  0  0  0  0  0  0  0  0  0  0
   -2.3629    2.0463    0.8938 H   0  0  0  0  0  0  0  0  0  0  0  0
   -3.2417    0.8054    1.8144 H   0  0  0  0  0  0  0  0  0  0  0  0
  1  2  1  0
  2  3  2  0
  3  4  1  0
  4  5  2  0
  5  6  1  0
  6  7  2  0
  5  8  1  0
  8  9  2  0
  8 10  1  0
 10 11  2  0
 11 12  1  0
 12 13  2  0
 13 14  1  0
 14 15  2  0
 13 16  1  0
 16 17  1  0
 17 18  1  0
 18 19  1  0
 19 20  1  0
 20 21  1  0
  7  2  1  0
 15 10  1  0
 21 16  1  0
  3 22  1  0
  4 23  1  0
  6 24  1  0
  7 25  1  0
 11 26  1  0
 12 27  1  0
 14 28  1  0
 15 29  1  0
 17 30  1  0
 17 31  1  0
 18 32  1  0
 18 33  1  0
 19 34  1  0
 20 35  1  0
 20 36  1  0
 21 37  1  0
 21 38  1  0
M  END
>  <Unnamed: 0>  (89) 
640

>  <ID>  (89) 
TRAIN_0640

>  <Canonical_Smiles>  (89) 
Fc1ccc(cc1)C(=O)c2ccc(cc2)N3CCNCC3

>  <Inhibition>  (89) 
45.7

>  <TDC_conf_true_inhibitor>  (89) 
0

>  <TDC_conf_non_inhibitor>  (89) 
1

>  <split>  (89) 
1

$$$$
89
     RDKit          3D

 47 48  0  0  0  0  0  0  0  0999 V2000
    0.6828    0.0000    0.0000 Cl  0  0  0  0  0  0  0  0  0  0  0  0
   -1.9087   -0.6878    1.9915 C   0  0  0  0  0  0  0  0  0  0  0  0
   -1.5993   -0.2201    0.5887 C   0  0  0  0  0  0  0  0  0  0  0  0
   -2.5456    0.2852   -0.1358 C   0  0  0  0  0  0  0  0  0  0  0  0
   -3.9579    0.5307    0.1083 C   0  0  0  0  0  0  0  0  0  0  0  0
   -4.8616    0.0822   -0.8392 C   0  0  0  0  0  0  0  0  0  0  0  0
   -6.2111    0.2755   -0.7173 C   0  0  0  0  0  0  0  0  0  0  0  0
   -6.6842    0.9544    0.4138 C   0  0  0  0  0  0  0  0  0  0  0  0
   -8.0067    1.1848    0.6126 F   0  0  0  0  0  0  0  0  0  0  0  0
   -5.8223    1.4175    1.3812 C   0  0  0  0  0  0  0  0  0  0  0  0
   -4.4666    1.1943    1.2070 C   0  0  0  0  0  0  0  0  0  0  0  0
   -1.7872    0.7044   -1.6739 S   0  0  0  0  0  6  0  0  0  0  0  0
   -1.8048    2.1809   -1.9132 O   0  0  0  0  0  0  0  0  0  0  0  0
   -2.3384   -0.0980   -2.8052 O   0  0  0  0  0  0  0  0  0  0  0  0
   -0.1912    0.1380   -1.2061 C   0  0  0  0  0  0  0  0  0  0  0  0
   -0.2945   -0.3055   -0.0023 C   0  0  0  0  0  0  0  0  0  0  0  0
    0.8243   -0.8737    0.7051 N   0  0  0  0  0  0  0  0  0  0  0  0
    1.6883   -1.8902    0.2334 C   0  0  0  0  0  0  0  0  0  0  0  0
    2.6658   -1.5554   -0.8384 C   0  0  0  0  0  0  0  0  0  0  0  0
    3.6181   -0.5653   -0.5416 N   0  0  0  0  0  0  0  0  0  0  0  0
    3.2629    0.7710   -0.3536 C   0  0  0  0  0  0  0  0  0  0  0  0
    4.2582    1.5246    0.5165 C   0  0  0  0  0  0  0  0  0  0  0  0
    5.5654    1.3364    0.1443 O   0  0  0  0  0  0  0  0  0  0  0  0
    5.8612    0.1846   -0.5199 C   0  0  0  0  0  0  0  0  0  0  0  0
    4.9344   -0.9793   -0.2218 C   0  0  0  0  0  0  0  0  0  0  0  0
   -0.6828    0.0000    0.0000 H   0  0  0  0  0  0  0  0  0  0  0  0
   -1.6537    0.1044    2.7345 H   0  0  0  0  0  0  0  0  0  0  0  0
   -1.2623   -1.5783    2.1737 H   0  0  0  0  0  0  0  0  0  0  0  0
   -2.9404   -0.9909    2.1247 H   0  0  0  0  0  0  0  0  0  0  0  0
   -4.4930   -0.4451   -1.7092 H   0  0  0  0  0  0  0  0  0  0  0  0
   -6.9170   -0.0750   -1.4532 H   0  0  0  0  0  0  0  0  0  0  0  0
   -6.2020    1.9494    2.2678 H   0  0  0  0  0  0  0  0  0  0  0  0
   -3.7626    1.5571    1.9544 H   0  0  0  0  0  0  0  0  0  0  0  0
    0.6270    0.2172   -1.8959 H   0  0  0  0  0  0  0  0  0  0  0  0
    0.9467   -0.4271    1.6703 H   0  0  0  0  0  0  0  0  0  0  0  0
    1.0917   -2.7807   -0.1607 H   0  0  0  0  0  0  0  0  0  0  0  0
    2.2291   -2.3114    1.0978 H   0  0  0  0  0  0  0  0  0  0  0  0
    3.2873   -2.5103   -1.0168 H   0  0  0  0  0  0  0  0  0  0  0  0
    2.2319   -1.3921   -1.8522 H   0  0  0  0  0  0  0  0  0  0  0  0
    2.2731    0.9401    0.1249 H   0  0  0  0  0  0  0  0  0  0  0  0
    3.1926    1.3099   -1.3341 H   0  0  0  0  0  0  0  0  0  0  0  0
    4.0009    2.6001    0.4343 H   0  0  0  0  0  0  0  0  0  0  0  0
    4.1177    1.1719    1.5681 H   0  0  0  0  0  0  0  0  0  0  0  0
    6.8908   -0.1535   -0.2526 H   0  0  0  0  0  0  0  0  0  0  0  0
    5.8120    0.3740   -1.5987 H   0  0  0  0  0  0  0  0  0  0  0  0
    5.0623   -1.3440    0.8337 H   0  0  0  0  0  0  0  0  0  0  0  0
    5.2692   -1.8048   -0.9043 H   0  0  0  0  0  0  0  0  0  0  0  0
  2  3  1  0
  3  4  2  0
  4  5  1  0
  5  6  2  0
  6  7  1  0
  7  8  2  0
  8  9  1  0
  8 10  1  0
 10 11  2  0
  4 12  1  0
 12 13  2  0
 12 14  2  0
 12 15  1  0
 15 16  2  0
 16 17  1  0
 17 18  1  0
 18 19  1  0
 19 20  1  0
 20 21  1  0
 21 22  1  0
 22 23  1  0
 23 24  1  0
 24 25  1  0
 16  3  1  0
 11  5  1  0
 25 20  1  0
  1 26  1  0
  2 27  1  0
  2 28  1  0
  2 29  1  0
  6 30  1  0
  7 31  1  0
 10 32  1  0
 11 33  1  0
 15 34  1  0
 17 35  1  0
 18 36  1  0
 18 37  1  0
 19 38  1  0
 19 39  1  0
 21 40  1  0
 21 41  1  0
 22 42  1  0
 22 43  1  0
 24 44  1  0
 24 45  1  0
 25 46  1  0
 25 47  1  0
M  END
>  <Unnamed: 0>  (90) 
647

>  <ID>  (90) 
TRAIN_0647

>  <Canonical_Smiles>  (90) 
Cl.CC1=C(c2ccc(F)cc2)S(=O)(=O)C=C1NCCN3CCOCC3

>  <Inhibition>  (90) 
33.2

>  <TDC_conf_true_inhibitor>  (90) 
0

>  <TDC_conf_non_inhibitor>  (90) 
1

>  <split>  (90) 
1

$$$$
90
     RDKit          3D

 36 38  0  0  0  0  0  0  0  0999 V2000
   -5.5312   -0.4489    0.4019 C   0  0  0  0  0  0  0  0  0  0  0  0
   -4.1314   -0.1157    0.6480 N   0  0  0  0  0  0  0  0  0  0  0  0
   -3.5948    0.8098   -0.3772 C   0  0  0  0  0  0  0  0  0  0  0  0
   -2.5649    0.1773   -1.3375 C   0  0  0  0  0  0  0  0  0  0  0  0
   -1.4071   -0.3799   -0.5965 N   0  0  0  0  0  0  0  0  0  0  0  0
   -1.7935   -1.0669    0.6655 C   0  0  0  0  0  0  0  0  0  0  0  0
   -3.3125   -1.3406    0.7513 C   0  0  0  0  0  0  0  0  0  0  0  0
   -0.2472    0.3641   -0.5782 C   0  0  0  0  0  0  0  0  0  0  0  0
   -0.2160    1.6604   -0.8957 N   0  0  0  0  0  0  0  0  0  0  0  0
    1.3150    2.2478   -0.7541 S   0  0  0  0  0  0  0  0  0  0  0  0
    2.0424    0.7687   -0.3041 C   0  0  0  0  0  0  0  0  0  0  0  0
    3.4785    0.6949   -0.0397 C   0  0  0  0  0  0  0  0  0  0  0  0
    4.4112    1.0407   -1.0284 C   0  0  0  0  0  0  0  0  0  0  0  0
    5.7817    0.9589   -0.7709 C   0  0  0  0  0  0  0  0  0  0  0  0
    6.2332    0.5289    0.4750 C   0  0  0  0  0  0  0  0  0  0  0  0
    5.3165    0.1796    1.4644 C   0  0  0  0  0  0  0  0  0  0  0  0
    3.9456    0.2612    1.2091 C   0  0  0  0  0  0  0  0  0  0  0  0
    1.0462   -0.1930   -0.2522 C   0  0  0  0  0  0  0  0  0  0  0  0
    1.3155   -1.5629    0.0519 C   0  0  0  0  0  0  0  0  0  0  0  0
    1.5434   -2.6678    0.3285 N   0  0  0  0  0  0  0  0  0  0  0  0
   -6.1499    0.4551    0.4228 H   0  0  0  0  0  0  0  0  0  0  0  0
   -5.6739   -0.9434   -0.5657 H   0  0  0  0  0  0  0  0  0  0  0  0
   -5.9143   -1.1093    1.1878 H   0  0  0  0  0  0  0  0  0  0  0  0
   -4.4013    1.2653   -0.9651 H   0  0  0  0  0  0  0  0  0  0  0  0
   -3.1107    1.6352    0.1598 H   0  0  0  0  0  0  0  0  0  0  0  0
   -3.0387   -0.6395   -1.8974 H   0  0  0  0  0  0  0  0  0  0  0  0
   -2.2609    0.9081   -2.0968 H   0  0  0  0  0  0  0  0  0  0  0  0
   -1.2748   -2.0285    0.7304 H   0  0  0  0  0  0  0  0  0  0  0  0
   -1.4954   -0.4615    1.5320 H   0  0  0  0  0  0  0  0  0  0  0  0
   -3.5809   -2.0517   -0.0421 H   0  0  0  0  0  0  0  0  0  0  0  0
   -3.5273   -1.8323    1.7076 H   0  0  0  0  0  0  0  0  0  0  0  0
    4.0822    1.3678   -2.0126 H   0  0  0  0  0  0  0  0  0  0  0  0
    6.4968    1.2268   -1.5447 H   0  0  0  0  0  0  0  0  0  0  0  0
    7.2999    0.4629    0.6743 H   0  0  0  0  0  0  0  0  0  0  0  0
    5.6684   -0.1586    2.4360 H   0  0  0  0  0  0  0  0  0  0  0  0
    3.2499   -0.0128    1.9994 H   0  0  0  0  0  0  0  0  0  0  0  0
  1  2  1  0
  2  3  1  0
  3  4  1  0
  4  5  1  0
  5  6  1  0
  6  7  1  0
  5  8  1  0
  8  9  2  0
  9 10  1  0
 10 11  1  0
 11 12  1  0
 12 13  2  0
 13 14  1  0
 14 15  2  0
 15 16  1  0
 16 17  2  0
 11 18  2  0
 18 19  1  0
 19 20  3  0
  7  2  1  0
 18  8  1  0
 17 12  1  0
  1 21  1  0
  1 22  1  0
  1 23  1  0
  3 24  1  0
  3 25  1  0
  4 26  1  0
  4 27  1  0
  6 28  1  0
  6 29  1  0
  7 30  1  0
  7 31  1  0
 13 32  1  0
 14 33  1  0
 15 34  1  0
 16 35  1  0
 17 36  1  0
M  END
>  <Unnamed: 0>  (91) 
649

>  <ID>  (91) 
TRAIN_0649

>  <Canonical_Smiles>  (91) 
CN1CCN(CC1)c2nsc(c3ccccc3)c2C#N

>  <Inhibition>  (91) 
12.1

>  <TDC_conf_true_inhibitor>  (91) 
0

>  <TDC_conf_non_inhibitor>  (91) 
1

>  <split>  (91) 
1

$$$$
91
     RDKit          3D

 45 47  0  0  0  0  0  0  0  0999 V2000
    7.3013    0.3980   -1.3384 C   0  0  0  0  0  0  0  0  0  0  0  0
    6.7727   -0.6990   -0.6042 O   0  0  0  0  0  0  0  0  0  0  0  0
    5.4654   -0.6046   -0.2131 C   0  0  0  0  0  0  0  0  0  0  0  0
    4.5959    0.4462   -0.5006 C   0  0  0  0  0  0  0  0  0  0  0  0
    3.2752    0.4139   -0.0375 C   0  0  0  0  0  0  0  0  0  0  0  0
    2.8059   -0.6618    0.7293 C   0  0  0  0  0  0  0  0  0  0  0  0
    1.3732   -0.7321    1.1970 C   0  0  0  0  0  0  0  0  0  0  0  0
    0.8430    0.5789    1.3884 O   0  0  0  0  0  0  0  0  0  0  0  0
   -0.5748    0.6001    1.5452 C   0  0  0  0  0  0  0  0  0  0  0  0
   -1.2754    0.6378    0.1918 C   0  0  1  0  0  0  0  0  0  0  0  0
   -2.7378    0.1762    0.2708 C   0  0  2  0  0  0  0  0  0  0  0  0
   -2.9546   -1.3381    0.2257 C   0  0  0  0  0  0  0  0  0  0  0  0
   -4.3358   -1.7148   -0.3358 C   0  0  0  0  0  0  0  0  0  0  0  0
   -5.3517   -0.5872   -0.2057 C   0  0  0  0  0  0  0  0  0  0  0  0
   -6.5509   -0.9840   -0.6943 F   0  0  0  0  0  0  0  0  0  0  0  0
   -5.5431   -0.3341    1.1177 F   0  0  0  0  0  0  0  0  0  0  0  0
   -4.9213    0.7080   -0.8967 C   0  0  0  0  0  0  0  0  0  0  0  0
   -3.3998    0.8549   -0.9284 C   0  0  1  0  0  0  0  0  0  0  0  0
   -2.8681    2.2821   -0.8727 C   0  0  0  0  0  0  0  0  0  0  0  0
   -1.4715    2.0576   -0.3291 C   0  0  0  0  0  0  0  0  0  0  0  0
   -0.6134    2.9303   -0.3269 O   0  0  0  0  0  0  0  0  0  0  0  0
    3.6826   -1.7192    1.0027 C   0  0  0  0  0  0  0  0  0  0  0  0
    5.0003   -1.6859    0.5377 C   0  0  0  0  0  0  0  0  0  0  0  0
    8.3506    0.1782   -1.5579 H   0  0  0  0  0  0  0  0  0  0  0  0
    7.2707    1.3202   -0.7487 H   0  0  0  0  0  0  0  0  0  0  0  0
    6.7804    0.5208   -2.2937 H   0  0  0  0  0  0  0  0  0  0  0  0
    4.9069    1.3073   -1.0821 H   0  0  0  0  0  0  0  0  0  0  0  0
    2.6118    1.2455   -0.2730 H   0  0  0  0  0  0  0  0  0  0  0  0
    0.7923   -1.2819    0.4480 H   0  0  0  0  0  0  0  0  0  0  0  0
    1.3163   -1.2640    2.1537 H   0  0  0  0  0  0  0  0  0  0  0  0
   -0.8172    1.4960    2.1275 H   0  0  0  0  0  0  0  0  0  0  0  0
   -0.8871   -0.2663    2.1402 H   0  0  0  0  0  0  0  0  0  0  0  0
   -0.7282    0.0885   -0.5825 H   0  0  0  0  0  0  0  0  0  0  0  0
   -3.1890    0.5671    1.1957 H   0  0  0  0  0  0  0  0  0  0  0  0
   -2.1827   -1.8296   -0.3785 H   0  0  0  0  0  0  0  0  0  0  0  0
   -2.8486   -1.7406    1.2406 H   0  0  0  0  0  0  0  0  0  0  0  0
   -4.2402   -1.9877   -1.3942 H   0  0  0  0  0  0  0  0  0  0  0  0
   -4.7033   -2.6116    0.1763 H   0  0  0  0  0  0  0  0  0  0  0  0
   -5.3048    0.7328   -1.9235 H   0  0  0  0  0  0  0  0  0  0  0  0
   -5.3809    1.5547   -0.3734 H   0  0  0  0  0  0  0  0  0  0  0  0
   -3.0292    0.3827   -1.8511 H   0  0  0  0  0  0  0  0  0  0  0  0
   -2.8340    2.7420   -1.8630 H   0  0  0  0  0  0  0  0  0  0  0  0
   -3.4234    2.9096   -0.1697 H   0  0  0  0  0  0  0  0  0  0  0  0
    3.3503   -2.5768    1.5826 H   0  0  0  0  0  0  0  0  0  0  0  0
    5.6718   -2.5104    0.7636 H   0  0  0  0  0  0  0  0  0  0  0  0
  1  2  1  0
  2  3  1  0
  3  4  2  0
  4  5  1  0
  5  6  2  0
  6  7  1  0
  7  8  1  0
  8  9  1  0
  9 10  1  0
 10 11  1  0
 11 12  1  0
 12 13  1  0
 13 14  1  0
 14 15  1  0
 14 16  1  0
 14 17  1  0
 17 18  1  0
 18 19  1  0
 19 20  1  0
 20 21  2  0
  6 22  1  0
 22 23  2  0
 23  3  1  0
 20 10  1  0
 18 11  1  0
  1 24  1  0
  1 25  1  0
  1 26  1  0
  4 27  1  0
  5 28  1  0
  7 29  1  0
  7 30  1  0
  9 31  1  0
  9 32  1  0
 10 33  1  6
 11 34  1  1
 12 35  1  0
 12 36  1  0
 13 37  1  0
 13 38  1  0
 17 39  1  0
 17 40  1  0
 18 41  1  6
 19 42  1  0
 19 43  1  0
 22 44  1  0
 23 45  1  0
M  END
>  <Unnamed: 0>  (92) 
652

>  <ID>  (92) 
TRAIN_0652

>  <Canonical_Smiles>  (92) 
COc1ccc(COC[C@H]2[C@@H]3CCC(F)(F)C[C@H]3CC2=O)cc1

>  <Inhibition>  (92) 
42.9

>  <TDC_conf_true_inhibitor>  (92) 
1

>  <TDC_conf_non_inhibitor>  (92) 
0

>  <split>  (92) 
1

$$$$
92
     RDKit          3D

 39 41  0  0  0  0  0  0  0  0999 V2000
   -4.4453    1.1570    4.2235 Cl  0  0  0  0  0  0  0  0  0  0  0  0
   -4.7704    1.6755    2.5533 C   0  0  0  0  0  0  0  0  0  0  0  0
   -3.6163    1.3506    1.6165 C   0  0  0  0  0  0  0  0  0  0  0  0
   -3.3980   -0.1524    1.4434 C   0  0  0  0  0  0  0  0  0  0  0  0
   -2.4045   -0.4291    0.4095 N   0  0  0  0  0  0  0  0  0  0  0  0
   -1.0990   -0.4580    0.8278 N   0  0  0  0  0  0  0  0  0  0  0  0
   -0.1573   -0.6457   -0.0484 C   0  0  0  0  0  0  0  0  0  0  0  0
    1.2381   -0.6328    0.4568 C   0  0  0  0  0  0  0  0  0  0  0  0
    2.1014    0.3083    0.0475 C   0  0  0  0  0  0  0  0  0  0  0  0
    3.4832    0.4261    0.5150 C   0  0  0  0  0  0  0  0  0  0  0  0
    3.8672    0.1651    1.8270 C   0  0  0  0  0  0  0  0  0  0  0  0
    5.2042    0.3332    2.1801 C   0  0  0  0  0  0  0  0  0  0  0  0
    6.1127    0.7632    1.2213 C   0  0  0  0  0  0  0  0  0  0  0  0
    5.6424    1.0133   -0.0563 C   0  0  0  0  0  0  0  0  0  0  0  0
    4.3519    0.8590   -0.4274 N   0  0  0  0  0  0  0  0  0  0  0  0
   -0.4149   -0.8734   -1.4862 C   0  0  0  0  0  0  0  0  0  0  0  0
    0.5828   -1.1957   -2.4176 C   0  0  0  0  0  0  0  0  0  0  0  0
    0.2533   -1.3879   -3.7625 C   0  0  0  0  0  0  0  0  0  0  0  0
   -1.0697   -1.2712   -4.1835 C   0  0  0  0  0  0  0  0  0  0  0  0
   -2.0678   -0.9724   -3.2572 C   0  0  0  0  0  0  0  0  0  0  0  0
   -1.7380   -0.7813   -1.9078 C   0  0  0  0  0  0  0  0  0  0  0  0
   -2.8002   -0.5075   -0.9226 C   0  0  0  0  0  0  0  0  0  0  0  0
   -3.9615   -0.3742   -1.3030 O   0  0  0  0  0  0  0  0  0  0  0  0
   -4.9420    2.7558    2.5780 H   0  0  0  0  0  0  0  0  0  0  0  0
   -5.6952    1.1914    2.2250 H   0  0  0  0  0  0  0  0  0  0  0  0
   -2.6925    1.8232    1.9732 H   0  0  0  0  0  0  0  0  0  0  0  0
   -3.8319    1.8014    0.6396 H   0  0  0  0  0  0  0  0  0  0  0  0
   -4.3395   -0.6385    1.1620 H   0  0  0  0  0  0  0  0  0  0  0  0
   -3.0556   -0.6163    2.3752 H   0  0  0  0  0  0  0  0  0  0  0  0
    1.4662   -1.3595    1.2278 H   0  0  0  0  0  0  0  0  0  0  0  0
    1.8214    1.0420   -0.7042 H   0  0  0  0  0  0  0  0  0  0  0  0
    3.1470   -0.1499    2.5745 H   0  0  0  0  0  0  0  0  0  0  0  0
    5.5307    0.1367    3.1975 H   0  0  0  0  0  0  0  0  0  0  0  0
    7.1595    0.9064    1.4645 H   0  0  0  0  0  0  0  0  0  0  0  0
    6.3107    1.3574   -0.8406 H   0  0  0  0  0  0  0  0  0  0  0  0
    1.6234   -1.3068   -2.1248 H   0  0  0  0  0  0  0  0  0  0  0  0
    1.0324   -1.6309   -4.4821 H   0  0  0  0  0  0  0  0  0  0  0  0
   -1.3258   -1.4213   -5.2298 H   0  0  0  0  0  0  0  0  0  0  0  0
   -3.1030   -0.8965   -3.5851 H   0  0  0  0  0  0  0  0  0  0  0  0
  1  2  1  0
  2  3  1  0
  3  4  1  0
  4  5  1  0
  5  6  1  0
  6  7  2  0
  7  8  1  0
  8  9  2  0
  9 10  1  0
 10 11  2  0
 11 12  1  0
 12 13  2  0
 13 14  1  0
 14 15  2  0
  7 16  1  0
 16 17  2  0
 17 18  1  0
 18 19  2  0
 19 20  1  0
 20 21  2  0
 21 22  1  0
 22 23  2  0
 22  5  1  0
 15 10  1  0
 21 16  1  0
  2 24  1  0
  2 25  1  0
  3 26  1  0
  3 27  1  0
  4 28  1  0
  4 29  1  0
  8 30  1  0
  9 31  1  0
 11 32  1  0
 12 33  1  0
 13 34  1  0
 14 35  1  0
 17 36  1  0
 18 37  1  0
 19 38  1  0
 20 39  1  0
M  END
>  <Unnamed: 0>  (93) 
664

>  <ID>  (93) 
TRAIN_0664

>  <Canonical_Smiles>  (93) 
ClCCCN1N=C(\C=C\c2ccccn2)c3ccccc3C1=O

>  <Inhibition>  (93) 
35.2

>  <TDC_conf_true_inhibitor>  (93) 
1

>  <TDC_conf_non_inhibitor>  (93) 
0

>  <split>  (93) 
1

$$$$
93
     RDKit          3D

 32 33  0  0  0  0  0  0  0  0999 V2000
   -3.9812    1.3368    0.1116 C   0  0  0  0  0  0  0  0  0  0  0  0
   -3.7344   -0.1027    0.1993 N   0  0  0  0  0  0  0  0  0  0  0  0
   -4.8839   -0.8947    0.6462 C   0  0  0  0  0  0  0  0  0  0  0  0
   -2.4532   -0.6415    0.2529 C   0  0  0  0  0  0  0  0  0  0  0  0
   -1.2754   -0.0383    0.0446 C   0  0  0  0  0  0  0  0  0  0  0  0
    0.0028   -0.8037    0.1381 C   0  0  0  0  0  0  0  0  0  0  0  0
   -0.0208   -2.0309    0.1973 O   0  0  0  0  0  0  0  0  0  0  0  0
    1.2382   -0.0505    0.1132 C   0  0  0  0  0  0  0  0  0  0  0  0
    1.5563    1.1949    0.6463 C   0  0  0  0  0  0  0  0  0  0  0  0
    0.7331    2.1310    1.4519 C   0  0  0  0  0  0  0  0  0  0  0  0
    2.8595    1.5333    0.3735 N   0  0  0  0  0  0  0  0  0  0  0  0
    3.3625    0.5117   -0.2782 C   0  0  0  0  0  0  0  0  0  0  0  0
    4.6684    0.2983   -0.8008 C   0  0  0  0  0  0  0  0  0  0  0  0
    4.9536   -0.8500   -1.4436 C   0  0  0  0  0  0  0  0  0  0  0  0
    3.9490   -1.8892   -1.6207 C   0  0  0  0  0  0  0  0  0  0  0  0
    4.4307   -3.4411   -2.5272 Br  0  0  0  0  0  0  0  0  0  0  0  0
    2.7145   -1.6895   -1.1278 C   0  0  0  0  0  0  0  0  0  0  0  0
    2.4213   -0.4986   -0.4570 N   0  0  0  0  0  0  0  0  0  0  0  0
   -5.0372    1.5534   -0.0824 H   0  0  0  0  0  0  0  0  0  0  0  0
   -3.4091    1.7819   -0.7093 H   0  0  0  0  0  0  0  0  0  0  0  0
   -3.6986    1.8281    1.0486 H   0  0  0  0  0  0  0  0  0  0  0  0
   -4.7580   -1.9537    0.3949 H   0  0  0  0  0  0  0  0  0  0  0  0
   -5.8064   -0.5572    0.1618 H   0  0  0  0  0  0  0  0  0  0  0  0
   -5.0046   -0.8051    1.7307 H   0  0  0  0  0  0  0  0  0  0  0  0
   -2.4649   -1.7057    0.4947 H   0  0  0  0  0  0  0  0  0  0  0  0
   -1.2175    1.0075   -0.2168 H   0  0  0  0  0  0  0  0  0  0  0  0
    0.0799    1.5896    2.1427 H   0  0  0  0  0  0  0  0  0  0  0  0
    1.3720    2.7897    2.0492 H   0  0  0  0  0  0  0  0  0  0  0  0
    0.1187    2.7583    0.7994 H   0  0  0  0  0  0  0  0  0  0  0  0
    5.4128    1.0748   -0.6655 H   0  0  0  0  0  0  0  0  0  0  0  0
    5.9502   -1.0161   -1.8420 H   0  0  0  0  0  0  0  0  0  0  0  0
    1.9217   -2.4207   -1.2257 H   0  0  0  0  0  0  0  0  0  0  0  0
  1  2  1  0
  2  3  1  0
  2  4  1  0
  4  5  2  0
  5  6  1  0
  6  7  2  0
  6  8  1  0
  8  9  2  0
  9 10  1  0
  9 11  1  0
 11 12  2  0
 12 13  1  0
 13 14  2  0
 14 15  1  0
 15 16  1  0
 15 17  2  0
 17 18  1  0
 18  8  1  0
 18 12  1  0
  1 19  1  0
  1 20  1  0
  1 21  1  0
  3 22  1  0
  3 23  1  0
  3 24  1  0
  4 25  1  0
  5 26  1  0
 10 27  1  0
 10 28  1  0
 10 29  1  0
 13 30  1  0
 14 31  1  0
 17 32  1  0
M  END
>  <Unnamed: 0>  (94) 
667

>  <ID>  (94) 
TRAIN_0667

>  <Canonical_Smiles>  (94) 
CN(C)\C=C\C(=O)c1c(C)nc2ccc(Br)cn12

>  <Inhibition>  (94) 
20.4

>  <TDC_conf_true_inhibitor>  (94) 
0

>  <TDC_conf_non_inhibitor>  (94) 
1

>  <split>  (94) 
1

$$$$
94
     RDKit          3D

 46 48  0  0  0  0  0  0  0  0999 V2000
    7.7290   -0.8496   -0.0801 N   0  0  0  0  0  0  0  0  0  0  0  0
    6.7089   -0.5214   -0.9283 C   0  0  0  0  0  0  0  0  0  0  0  0
    6.8957   -0.4274   -2.1339 O   0  0  0  0  0  0  0  0  0  0  0  0
    5.3773   -0.2482   -0.3287 C   0  0  0  0  0  0  0  0  0  0  0  0
    4.9961   -0.7778    0.9053 C   0  0  0  0  0  0  0  0  0  0  0  0
    3.7267   -0.4970    1.4156 C   0  0  0  0  0  0  0  0  0  0  0  0
    2.8216    0.3061    0.6951 C   0  0  0  0  0  0  0  0  0  0  0  0
    3.1979    0.8306   -0.5430 C   0  0  0  0  0  0  0  0  0  0  0  0
    2.1887    1.7888   -1.5617 Cl  0  0  0  0  0  0  0  0  0  0  0  0
    4.4735    0.5423   -1.0506 C   0  0  0  0  0  0  0  0  0  0  0  0
    1.2617    0.6331    1.4837 S   0  0  0  0  0  6  0  0  0  0  0  0
    1.5180    0.6303    2.9110 O   0  0  0  0  0  0  0  0  0  0  0  0
    0.6063    1.7674    0.8808 O   0  0  0  0  0  0  0  0  0  0  0  0
    0.3593   -0.7701    1.1354 N   0  0  0  0  0  0  0  0  0  0  0  0
   -0.0199   -1.0112   -0.3013 C   0  0  0  0  0  0  0  0  0  0  0  0
   -1.2506   -0.1897   -0.7455 C   0  0  0  0  0  0  0  0  0  0  0  0
   -2.3725   -0.4450    0.1758 N   0  0  0  0  0  0  0  0  0  0  0  0
   -2.0553   -0.1400    1.5882 C   0  0  0  0  0  0  0  0  0  0  0  0
   -0.8354   -0.9734    2.0301 C   0  0  0  0  0  0  0  0  0  0  0  0
   -3.6819   -0.1692   -0.2088 C   0  0  0  0  0  0  0  0  0  0  0  0
   -4.6099   -1.2097    0.0317 C   0  0  0  0  0  0  0  0  0  0  0  0
   -5.9567   -1.1010   -0.3106 C   0  0  0  0  0  0  0  0  0  0  0  0
   -6.4031    0.0637   -0.9019 C   0  0  0  0  0  0  0  0  0  0  0  0
   -7.6921    0.1853   -1.2419 F   0  0  0  0  0  0  0  0  0  0  0  0
   -5.5279    1.1136   -1.1423 C   0  0  0  0  0  0  0  0  0  0  0  0
   -4.1600    1.0223   -0.7904 C   0  0  0  0  0  0  0  0  0  0  0  0
   -3.3013    2.2335   -1.0546 C   0  0  0  0  0  0  0  0  0  0  0  0
   -2.5317    2.6003    0.0048 F   0  0  0  0  0  0  0  0  0  0  0  0
   -2.4594    2.0611   -2.1125 F   0  0  0  0  0  0  0  0  0  0  0  0
   -4.0303    3.3487   -1.3620 F   0  0  0  0  0  0  0  0  0  0  0  0
    8.6484   -0.9060   -0.5019 H   0  0  0  0  0  0  0  0  0  0  0  0
    7.6914   -0.6610    0.9112 H   0  0  0  0  0  0  0  0  0  0  0  0
    5.6593   -1.4260    1.4718 H   0  0  0  0  0  0  0  0  0  0  0  0
    3.4426   -0.9145    2.3818 H   0  0  0  0  0  0  0  0  0  0  0  0
    4.7729    0.9370   -2.0220 H   0  0  0  0  0  0  0  0  0  0  0  0
    0.8282   -0.8245   -0.9633 H   0  0  0  0  0  0  0  0  0  0  0  0
   -0.2445   -2.0817   -0.3979 H   0  0  0  0  0  0  0  0  0  0  0  0
   -1.5219   -0.4922   -1.7639 H   0  0  0  0  0  0  0  0  0  0  0  0
   -0.9936    0.8703   -0.7652 H   0  0  0  0  0  0  0  0  0  0  0  0
   -2.8982   -0.3942    2.2427 H   0  0  0  0  0  0  0  0  0  0  0  0
   -1.8552    0.9302    1.7085 H   0  0  0  0  0  0  0  0  0  0  0  0
   -1.0875   -2.0414    1.9967 H   0  0  0  0  0  0  0  0  0  0  0  0
   -0.5807   -0.7553    3.0720 H   0  0  0  0  0  0  0  0  0  0  0  0
   -4.2603   -2.1373    0.4831 H   0  0  0  0  0  0  0  0  0  0  0  0
   -6.6470   -1.9166   -0.1244 H   0  0  0  0  0  0  0  0  0  0  0  0
   -5.9263    2.0166   -1.6014 H   0  0  0  0  0  0  0  0  0  0  0  0
  1  2  1  0
  2  3  2  0
  2  4  1  0
  4  5  2  0
  5  6  1  0
  6  7  2  0
  7  8  1  0
  8  9  1  0
  8 10  2  0
  7 11  1  0
 11 12  2  0
 11 13  2  0
 11 14  1  0
 14 15  1  0
 15 16  1  0
 16 17  1  0
 17 18  1  0
 18 19  1  0
 17 20  1  0
 20 21  2  0
 21 22  1  0
 22 23  2  0
 23 24  1  0
 23 25  1  0
 25 26  2  0
 26 27  1  0
 27 28  1  0
 27 29  1  0
 27 30  1  0
 10  4  1  0
 19 14  1  0
 26 20  1  0
  1 31  1  0
  1 32  1  0
  5 33  1  0
  6 34  1  0
 10 35  1  0
 15 36  1  0
 15 37  1  0
 16 38  1  0
 16 39  1  0
 18 40  1  0
 18 41  1  0
 19 42  1  0
 19 43  1  0
 21 44  1  0
 22 45  1  0
 25 46  1  0
M  END
>  <Unnamed: 0>  (95) 
684

>  <ID>  (95) 
TRAIN_0684

>  <Canonical_Smiles>  (95) 
NC(=O)c1ccc(c(Cl)c1)S(=O)(=O)N2CCN(CC2)c3ccc(F)cc3C(F)(F)F

>  <Inhibition>  (95) 
74.8

>  <TDC_conf_true_inhibitor>  (95) 
1

>  <TDC_conf_non_inhibitor>  (95) 
0

>  <split>  (95) 
1

$$$$
95
     RDKit          3D

 51 53  0  0  0  0  0  0  0  0999 V2000
   -6.1383    0.6744    2.1295 C   0  0  0  0  0  0  0  0  0  0  0  0
   -6.2096    0.2159    0.6688 C   0  0  0  0  0  0  0  0  0  0  0  0
   -6.9998   -1.0884    0.5134 C   0  0  0  0  0  0  0  0  0  0  0  0
   -6.9053    1.3107   -0.1548 C   0  0  0  0  0  0  0  0  0  0  0  0
   -4.8861    0.1054    0.0850 O   0  0  0  0  0  0  0  0  0  0  0  0
   -3.9786   -0.7820    0.5672 C   0  0  0  0  0  0  0  0  0  0  0  0
   -4.1809   -1.5455    1.5023 O   0  0  0  0  0  0  0  0  0  0  0  0
   -2.7858   -0.7190   -0.1216 N   0  0  0  0  0  0  0  0  0  0  0  0
   -2.5621    0.2026   -1.2381 C   0  0  0  0  0  0  0  0  0  0  0  0
   -1.2919   -0.1149   -2.0440 C   0  0  0  0  0  0  0  0  0  0  0  0
   -0.1211   -0.2281   -1.1636 N   0  0  0  0  0  0  0  0  0  0  0  0
   -0.3103   -0.8339    0.1598 C   0  0  0  0  0  0  0  0  0  0  0  0
   -1.6619   -1.5603    0.2784 C   0  0  0  0  0  0  0  0  0  0  0  0
    1.1005    0.0483   -1.6837 C   0  0  0  0  0  0  0  0  0  0  0  0
    1.4224    0.4057   -2.9113 N   0  0  0  0  0  0  0  0  0  0  0  0
    2.7885    0.5913   -2.9718 N   0  0  0  0  0  0  0  0  0  0  0  0
    3.2718    0.3516   -1.7760 C   0  0  0  0  0  0  0  0  0  0  0  0
    4.5900    0.4257   -1.4035 N   0  0  0  0  0  0  0  0  0  0  0  0
    5.0094    0.1457   -0.1176 C   0  0  0  0  0  0  0  0  0  0  0  0
    4.2343   -0.1867    0.7775 O   0  0  0  0  0  0  0  0  0  0  0  0
    6.4704    0.2621    0.1545 C   0  0  0  0  0  0  0  0  0  0  0  0
    6.9554    0.0679    1.4519 C   0  0  0  0  0  0  0  0  0  0  0  0
    6.1342   -0.2134    2.4730 F   0  0  0  0  0  0  0  0  0  0  0  0
    8.3195    0.1650    1.7394 C   0  0  0  0  0  0  0  0  0  0  0  0
    9.2289    0.4600    0.7265 C   0  0  0  0  0  0  0  0  0  0  0  0
    8.7657    0.6581   -0.5711 C   0  0  0  0  0  0  0  0  0  0  0  0
    7.4002    0.5586   -0.8466 C   0  0  0  0  0  0  0  0  0  0  0  0
    7.0095    0.7595   -2.1148 F   0  0  0  0  0  0  0  0  0  0  0  0
    2.2457    0.0136   -0.9403 N   0  0  0  0  0  0  0  0  0  0  0  0
   -5.7142   -0.0964    2.7799 H   0  0  0  0  0  0  0  0  0  0  0  0
   -7.1323    0.9201    2.5193 H   0  0  0  0  0  0  0  0  0  0  0  0
   -5.4965    1.5574    2.2288 H   0  0  0  0  0  0  0  0  0  0  0  0
   -8.0486   -0.9554    0.8004 H   0  0  0  0  0  0  0  0  0  0  0  0
   -6.9643   -1.4434   -0.5227 H   0  0  0  0  0  0  0  0  0  0  0  0
   -6.5914   -1.8915    1.1339 H   0  0  0  0  0  0  0  0  0  0  0  0
   -6.3459    2.2524   -0.1029 H   0  0  0  0  0  0  0  0  0  0  0  0
   -7.9272    1.4952    0.1937 H   0  0  0  0  0  0  0  0  0  0  0  0
   -6.9456    1.0336   -1.2149 H   0  0  0  0  0  0  0  0  0  0  0  0
   -3.4356    0.1904   -1.8993 H   0  0  0  0  0  0  0  0  0  0  0  0
   -2.4863    1.2075   -0.8055 H   0  0  0  0  0  0  0  0  0  0  0  0
   -1.1559    0.6762   -2.7916 H   0  0  0  0  0  0  0  0  0  0  0  0
   -1.4221   -1.0613   -2.5833 H   0  0  0  0  0  0  0  0  0  0  0  0
   -0.2579   -0.0407    0.9151 H   0  0  0  0  0  0  0  0  0  0  0  0
    0.4831   -1.5588    0.3772 H   0  0  0  0  0  0  0  0  0  0  0  0
   -1.7971   -1.9264    1.3013 H   0  0  0  0  0  0  0  0  0  0  0  0
   -1.6735   -2.4334   -0.3851 H   0  0  0  0  0  0  0  0  0  0  0  0
    5.2351    0.6910   -2.1407 H   0  0  0  0  0  0  0  0  0  0  0  0
    8.6595    0.0080    2.7601 H   0  0  0  0  0  0  0  0  0  0  0  0
   10.2910    0.5356    0.9485 H   0  0  0  0  0  0  0  0  0  0  0  0
    9.4590    0.8900   -1.3752 H   0  0  0  0  0  0  0  0  0  0  0  0
    2.3518   -0.2002    0.0396 H   0  0  0  0  0  0  0  0  0  0  0  0
  1  2  1  0
  2  3  1  0
  2  4  1  0
  2  5  1  0
  5  6  1  0
  6  7  2  0
  6  8  1  0
  8  9  1  0
  9 10  1  0
 10 11  1  0
 11 12  1  0
 12 13  1  0
 11 14  1  0
 14 15  2  0
 15 16  1  0
 16 17  2  0
 17 18  1  0
 18 19  1  0
 19 20  2  0
 19 21  1  0
 21 22  2  0
 22 23  1  0
 22 24  1  0
 24 25  2  0
 25 26  1  0
 26 27  2  0
 27 28  1  0
 17 29  1  0
 13  8  1  0
 29 14  1  0
 27 21  1  0
  1 30  1  0
  1 31  1  0
  1 32  1  0
  3 33  1  0
  3 34  1  0
  3 35  1  0
  4 36  1  0
  4 37  1  0
  4 38  1  0
  9 39  1  0
  9 40  1  0
 10 41  1  0
 10 42  1  0
 12 43  1  0
 12 44  1  0
 13 45  1  0
 13 46  1  0
 18 47  1  0
 24 48  1  0
 25 49  1  0
 26 50  1  0
 29 51  1  0
M  END
>  <Unnamed: 0>  (96) 
686

>  <ID>  (96) 
TRAIN_0686

>  <Canonical_Smiles>  (96) 
CC(C)(C)OC(=O)N1CCN(CC1)c2nnc(NC(=O)c3c(F)cccc3F)[nH]2

>  <Inhibition>  (96) 
0.5

>  <TDC_conf_true_inhibitor>  (96) 
0

>  <TDC_conf_non_inhibitor>  (96) 
1

>  <split>  (96) 
1

$$$$
96
     RDKit          3D

 44 45  0  0  0  0  0  0  0  0999 V2000
    6.8619    0.8082    0.9046 C   0  0  0  0  0  0  0  0  0  0  0  0
    5.4458    1.2971    1.1439 C   0  0  0  0  0  0  0  0  0  0  0  0
    4.5244    0.5585    0.3310 O   0  0  0  0  0  0  0  0  0  0  0  0
    4.0561   -0.5967    0.8516 C   0  0  0  0  0  0  0  0  0  0  0  0
    4.3641   -1.0674    1.9397 O   0  0  0  0  0  0  0  0  0  0  0  0
    3.1213   -1.2551   -0.0526 C   0  0  0  0  0  0  0  0  0  0  0  0
    2.5471   -2.4524    0.1700 C   0  0  0  0  0  0  0  0  0  0  0  0
    1.6913   -2.8721   -0.8413 N   0  0  0  0  0  0  0  0  0  0  0  0
    1.7915   -1.9457   -1.8703 N   0  0  0  0  0  0  0  0  0  0  0  0
    0.7107   -1.8007   -2.8455 C   0  0  0  0  0  0  0  0  0  0  0  0
   -0.4416   -0.9346   -2.3346 C   0  0  0  0  0  0  0  0  0  0  0  0
   -1.1056   -0.2566   -3.1173 O   0  0  0  0  0  0  0  0  0  0  0  0
   -0.6747   -1.0727   -0.9790 N   0  0  0  0  0  0  0  0  0  0  0  0
   -1.6615   -0.4346   -0.2574 C   0  0  0  0  0  0  0  0  0  0  0  0
   -1.8971   -0.5337    1.1315 C   0  0  0  0  0  0  0  0  0  0  0  0
   -2.9366    0.2039    1.5314 N   0  0  0  0  0  0  0  0  0  0  0  0
   -3.3609    0.7899    0.3946 N   0  0  0  0  0  0  0  0  0  0  0  0
   -4.4861    1.7094    0.4162 C   0  0  0  0  0  0  0  0  0  0  0  0
   -5.8177    0.9918    0.2025 C   0  0  0  0  0  0  0  0  0  0  0  0
   -6.6462    0.9642    1.3698 O   0  0  0  0  0  0  0  0  0  0  0  0
   -6.1639    0.0876    2.3815 C   0  0  0  0  0  0  0  0  0  0  0  0
   -2.6288    0.4322   -0.7024 C   0  0  0  0  0  0  0  0  0  0  0  0
    2.5840   -0.8939   -1.4005 C   0  0  0  0  0  0  0  0  0  0  0  0
    2.8234    0.2213   -1.9943 N   0  0  0  0  0  0  0  0  0  0  0  0
    7.1158    0.8712   -0.1587 H   0  0  0  0  0  0  0  0  0  0  0  0
    7.5797    1.4042    1.4752 H   0  0  0  0  0  0  0  0  0  0  0  0
    6.9694   -0.2414    1.1957 H   0  0  0  0  0  0  0  0  0  0  0  0
    5.3639    2.3479    0.8474 H   0  0  0  0  0  0  0  0  0  0  0  0
    5.1760    1.2396    2.2048 H   0  0  0  0  0  0  0  0  0  0  0  0
    2.7096   -3.0990    1.0239 H   0  0  0  0  0  0  0  0  0  0  0  0
    1.8630   -3.8499   -1.1036 H   0  0  0  0  0  0  0  0  0  0  0  0
    1.1058   -1.3481   -3.7614 H   0  0  0  0  0  0  0  0  0  0  0  0
    0.3061   -2.7845   -3.1091 H   0  0  0  0  0  0  0  0  0  0  0  0
   -0.0211   -1.6597   -0.4651 H   0  0  0  0  0  0  0  0  0  0  0  0
   -1.3568   -1.1128    1.8686 H   0  0  0  0  0  0  0  0  0  0  0  0
   -4.4512    2.2654    1.3590 H   0  0  0  0  0  0  0  0  0  0  0  0
   -4.3103    2.4193   -0.4008 H   0  0  0  0  0  0  0  0  0  0  0  0
   -5.7033   -0.0244   -0.1941 H   0  0  0  0  0  0  0  0  0  0  0  0
   -6.3916    1.5557   -0.5416 H   0  0  0  0  0  0  0  0  0  0  0  0
   -6.9528   -0.0319    3.1296 H   0  0  0  0  0  0  0  0  0  0  0  0
   -5.2930    0.5202    2.8792 H   0  0  0  0  0  0  0  0  0  0  0  0
   -5.9250   -0.8975    1.9696 H   0  0  0  0  0  0  0  0  0  0  0  0
   -2.8537    0.8244   -1.6846 H   0  0  0  0  0  0  0  0  0  0  0  0
    2.3686    0.2619   -2.9073 H   0  0  0  0  0  0  0  0  0  0  0  0
  1  2  1  0
  2  3  1  0
  3  4  1  0
  4  5  2  0
  4  6  1  0
  6  7  2  0
  7  8  1  0
  8  9  1  0
  9 10  1  0
 10 11  1  0
 11 12  2  0
 11 13  1  0
 13 14  1  0
 14 15  1  0
 15 16  2  0
 16 17  1  0
 17 18  1  0
 18 19  1  0
 19 20  1  0
 20 21  1  0
 17 22  1  0
  9 23  1  0
 23 24  2  3
 23  6  1  0
 22 14  2  0
  1 25  1  0
  1 26  1  0
  1 27  1  0
  2 28  1  0
  2 29  1  0
  7 30  1  0
  8 31  1  0
 10 32  1  0
 10 33  1  0
 13 34  1  0
 15 35  1  0
 18 36  1  0
 18 37  1  0
 19 38  1  0
 19 39  1  0
 21 40  1  0
 21 41  1  0
 21 42  1  0
 22 43  1  0
 24 44  1  0
M  END
>  <Unnamed: 0>  (97) 
691

>  <ID>  (97) 
TRAIN_0691

>  <Canonical_Smiles>  (97) 
CCOC(=O)C1=CNN(CC(=O)Nc2cnn(CCOC)c2)C1=N

>  <Inhibition>  (97) 
0.5

>  <TDC_conf_true_inhibitor>  (97) 
0

>  <TDC_conf_non_inhibitor>  (97) 
1

>  <split>  (97) 
1

$$$$
97
     RDKit          3D

 61 63  0  0  0  0  0  0  0  0999 V2000
    1.8571    1.4192    1.1422 C   0  0  0  0  0  0  0  0  0  0  0  0
    1.8659   -0.0262    0.6398 C   0  0  1  0  0  0  0  0  0  0  0  0
    0.4757   -0.6975    0.7628 C   0  0  0  0  0  0  0  0  0  0  0  0
   -0.5261   -0.2622   -0.2450 N   0  0  0  0  0  0  0  0  0  0  0  0
    0.0645    0.2899   -1.4913 C   0  0  0  0  0  0  0  0  0  0  0  0
    1.4318   -0.3260   -1.8057 C   0  0  0  0  0  0  0  0  0  0  0  0
    2.3980   -0.1123   -0.7309 N   0  0  0  0  0  0  0  0  0  0  0  0
    3.7451   -0.0907   -1.0336 C   0  0  0  0  0  0  0  0  0  0  0  0
    4.1847   -0.2363   -2.1673 O   0  0  0  0  0  0  0  0  0  0  0  0
    4.5093    0.1108    0.0683 O   0  0  0  0  0  0  0  0  0  0  0  0
    5.9510    0.2189   -0.0255 C   0  0  0  0  0  0  0  0  0  0  0  0
    6.3649    1.4073   -0.8997 C   0  0  0  0  0  0  0  0  0  0  0  0
    6.4130    0.4842    1.4152 C   0  0  0  0  0  0  0  0  0  0  0  0
    6.5737   -1.0969   -0.5054 C   0  0  0  0  0  0  0  0  0  0  0  0
   -1.5244    0.5110    0.2661 C   0  0  0  0  0  0  0  0  0  0  0  0
   -1.4249    1.6732    0.8632 N   0  0  0  0  0  0  0  0  0  0  0  0
   -2.6690    2.0454    1.2722 N   0  0  0  0  0  0  0  0  0  0  0  0
   -3.5344    1.1001    0.9447 C   0  0  0  0  0  0  0  0  0  0  0  0
   -4.9630    1.1967    1.4022 C   0  0  0  0  0  0  0  0  0  0  0  0
   -5.1217    0.6876    2.8228 C   0  0  0  0  0  0  0  0  0  0  0  0
   -5.5115   -0.7597    2.6211 C   0  0  0  0  0  0  0  0  0  0  0  0
   -6.1956   -0.8376    1.3614 O   0  0  0  0  0  0  0  0  0  0  0  0
   -6.0358    0.4173    0.6772 C   0  0  0  0  0  0  0  0  0  0  0  0
   -2.8506    0.1213    0.2455 N   0  0  0  0  0  0  0  0  0  0  0  0
   -3.3155   -1.1261   -0.3416 C   0  0  0  0  0  0  0  0  0  0  0  0
   -3.2548   -1.1702   -1.8585 C   0  0  0  0  0  0  0  0  0  0  0  0
   -2.6544   -2.1873   -2.5030 C   0  0  0  0  0  0  0  0  0  0  0  0
   -3.8914   -0.0438   -2.6210 C   0  0  0  0  0  0  0  0  0  0  0  0
    2.8740    1.8221    1.1965 H   0  0  0  0  0  0  0  0  0  0  0  0
    1.2874    2.0810    0.4836 H   0  0  0  0  0  0  0  0  0  0  0  0
    1.4250    1.4766    2.1443 H   0  0  0  0  0  0  0  0  0  0  0  0
    2.5476   -0.5870    1.2933 H   0  0  0  0  0  0  0  0  0  0  0  0
    0.6107   -1.7752    0.6121 H   0  0  0  0  0  0  0  0  0  0  0  0
    0.0926   -0.5891    1.7842 H   0  0  0  0  0  0  0  0  0  0  0  0
   -0.6135    0.0904   -2.3283 H   0  0  0  0  0  0  0  0  0  0  0  0
    0.1747    1.3794   -1.4185 H   0  0  0  0  0  0  0  0  0  0  0  0
    1.8186    0.0901   -2.7415 H   0  0  0  0  0  0  0  0  0  0  0  0
    1.3373   -1.4099   -1.9407 H   0  0  0  0  0  0  0  0  0  0  0  0
    5.8159    2.3124   -0.6155 H   0  0  0  0  0  0  0  0  0  0  0  0
    6.1483    1.2300   -1.9579 H   0  0  0  0  0  0  0  0  0  0  0  0
    7.4370    1.6095   -0.8156 H   0  0  0  0  0  0  0  0  0  0  0  0
    7.5013    0.5909    1.4794 H   0  0  0  0  0  0  0  0  0  0  0  0
    5.9489    1.3955    1.8112 H   0  0  0  0  0  0  0  0  0  0  0  0
    6.1064   -0.3322    2.0816 H   0  0  0  0  0  0  0  0  0  0  0  0
    7.6658   -1.0701   -0.4319 H   0  0  0  0  0  0  0  0  0  0  0  0
    6.3184   -1.3201   -1.5484 H   0  0  0  0  0  0  0  0  0  0  0  0
    6.2041   -1.9398    0.0927 H   0  0  0  0  0  0  0  0  0  0  0  0
   -5.2146    2.2649    1.3566 H   0  0  0  0  0  0  0  0  0  0  0  0
   -4.2420    0.8001    3.4641 H   0  0  0  0  0  0  0  0  0  0  0  0
   -5.9538    1.2190    3.3029 H   0  0  0  0  0  0  0  0  0  0  0  0
   -6.1631   -1.1320    3.4170 H   0  0  0  0  0  0  0  0  0  0  0  0
   -4.6301   -1.4071    2.5644 H   0  0  0  0  0  0  0  0  0  0  0  0
   -6.9985    0.9352    0.7559 H   0  0  0  0  0  0  0  0  0  0  0  0
   -5.8484    0.2509   -0.3831 H   0  0  0  0  0  0  0  0  0  0  0  0
   -4.3345   -1.3202   -0.0272 H   0  0  0  0  0  0  0  0  0  0  0  0
   -2.7105   -1.9240    0.1085 H   0  0  0  0  0  0  0  0  0  0  0  0
   -2.1878   -3.0089   -1.9616 H   0  0  0  0  0  0  0  0  0  0  0  0
   -2.6072   -2.2296   -3.5885 H   0  0  0  0  0  0  0  0  0  0  0  0
   -4.9714   -0.0181   -2.4378 H   0  0  0  0  0  0  0  0  0  0  0  0
   -3.4576    0.9174   -2.3251 H   0  0  0  0  0  0  0  0  0  0  0  0
   -3.7426   -0.1469   -3.7029 H   0  0  0  0  0  0  0  0  0  0  0  0
  1  2  1  0
  2  3  1  0
  3  4  1  0
  4  5  1  0
  5  6  1  0
  6  7  1  0
  7  8  1  0
  8  9  2  0
  8 10  1  0
 10 11  1  0
 11 12  1  0
 11 13  1  0
 11 14  1  0
  4 15  1  0
 15 16  2  0
 16 17  1  0
 17 18  2  0
 18 19  1  0
 19 20  1  0
 20 21  1  0
 21 22  1  0
 22 23  1  0
 18 24  1  0
 24 25  1  0
 25 26  1  0
 26 27  2  0
 26 28  1  0
  7  2  1  0
 24 15  1  0
 23 19  1  0
  1 29  1  0
  1 30  1  0
  1 31  1  0
  2 32  1  1
  3 33  1  0
  3 34  1  0
  5 35  1  0
  5 36  1  0
  6 37  1  0
  6 38  1  0
 12 39  1  0
 12 40  1  0
 12 41  1  0
 13 42  1  0
 13 43  1  0
 13 44  1  0
 14 45  1  0
 14 46  1  0
 14 47  1  0
 19 48  1  0
 20 49  1  0
 20 50  1  0
 21 51  1  0
 21 52  1  0
 23 53  1  0
 23 54  1  0
 25 55  1  0
 25 56  1  0
 27 57  1  0
 27 58  1  0
 28 59  1  0
 28 60  1  0
 28 61  1  0
M  END
>  <Unnamed: 0>  (98) 
693

>  <ID>  (98) 
TRAIN_0693

>  <Canonical_Smiles>  (98) 
C[C@H]1CN(CCN1C(=O)OC(C)(C)C)c2nnc(C3CCOC3)n2CC(=C)C

>  <Inhibition>  (98) 
0.5

>  <TDC_conf_true_inhibitor>  (98) 
0

>  <TDC_conf_non_inhibitor>  (98) 
1

>  <split>  (98) 
1

$$$$
98
     RDKit          3D

 44 46  0  0  0  0  0  0  0  0999 V2000
    3.8678   -0.1069   -1.0094 O   0  0  0  0  0  0  0  0  0  0  0  0
    3.3849   -1.0247   -0.3520 C   0  0  0  0  0  0  0  0  0  0  0  0
    4.2665   -2.0911    0.2840 C   0  0  0  0  0  0  0  0  0  0  0  0
    5.7561   -1.8239    0.0801 C   0  0  0  0  0  0  0  0  0  0  0  0
    6.2396   -0.6758    0.8931 C   0  0  0  0  0  0  0  0  0  0  0  0
    6.9277   -0.7117    2.0139 N   0  0  0  0  0  0  0  0  0  0  0  0
    7.1401    0.5872    2.4198 N   0  0  0  0  0  0  0  0  0  0  0  0
    6.5727    1.3792    1.5401 C   0  0  0  0  0  0  0  0  0  0  0  0
    6.0015    0.6326    0.5591 N   0  0  0  0  0  0  0  0  0  0  0  0
    2.0504   -1.2502   -0.0773 N   0  0  0  0  0  0  0  0  0  0  0  0
    1.0097   -0.4432   -0.4852 C   0  0  0  0  0  0  0  0  0  0  0  0
   -0.3490   -0.7043   -0.1826 C   0  0  0  0  0  0  0  0  0  0  0  0
   -1.0652    0.3230   -0.7616 C   0  0  0  0  0  0  0  0  0  0  0  0
   -0.1238    1.1165   -1.3574 N   0  0  0  0  0  0  0  0  0  0  0  0
    1.1293    0.6737   -1.1998 N   0  0  0  0  0  0  0  0  0  0  0  0
   -2.5355    0.6381   -0.8115 C   0  0  0  0  0  0  0  0  0  0  0  0
   -3.3263   -0.5582   -1.3686 C   0  0  0  0  0  0  0  0  0  0  0  0
   -4.5876   -0.1353   -2.1242 C   0  0  0  0  0  0  0  0  0  0  0  0
   -5.7323    0.3745   -1.2565 C   0  0  0  0  0  0  0  0  0  0  0  0
   -5.3817    1.5387   -0.3329 C   0  0  0  0  0  0  0  0  0  0  0  0
   -4.5091    1.1131    0.8424 C   0  0  0  0  0  0  0  0  0  0  0  0
   -3.0055    1.1123    0.5749 C   0  0  0  0  0  0  0  0  0  0  0  0
    4.0306   -2.1553    1.3533 H   0  0  0  0  0  0  0  0  0  0  0  0
    4.0101   -3.0500   -0.1822 H   0  0  0  0  0  0  0  0  0  0  0  0
    6.3172   -2.7184    0.3770 H   0  0  0  0  0  0  0  0  0  0  0  0
    5.9806   -1.6505   -0.9792 H   0  0  0  0  0  0  0  0  0  0  0  0
    6.5417    2.4583    1.5687 H   0  0  0  0  0  0  0  0  0  0  0  0
    5.4427    0.9500   -0.2265 H   0  0  0  0  0  0  0  0  0  0  0  0
    1.7916   -2.0530    0.4770 H   0  0  0  0  0  0  0  0  0  0  0  0
   -0.7574   -1.5301    0.3821 H   0  0  0  0  0  0  0  0  0  0  0  0
   -0.2644    1.9722   -1.8847 H   0  0  0  0  0  0  0  0  0  0  0  0
   -2.6613    1.4794   -1.5080 H   0  0  0  0  0  0  0  0  0  0  0  0
   -3.5722   -1.2743   -0.5747 H   0  0  0  0  0  0  0  0  0  0  0  0
   -2.7017   -1.1050   -2.0883 H   0  0  0  0  0  0  0  0  0  0  0  0
   -4.9558   -1.0013   -2.6889 H   0  0  0  0  0  0  0  0  0  0  0  0
   -4.3311    0.6252   -2.8723 H   0  0  0  0  0  0  0  0  0  0  0  0
   -6.5432    0.6950   -1.9229 H   0  0  0  0  0  0  0  0  0  0  0  0
   -6.1374   -0.4562   -0.6652 H   0  0  0  0  0  0  0  0  0  0  0  0
   -6.3247    1.9255    0.0742 H   0  0  0  0  0  0  0  0  0  0  0  0
   -4.9242    2.3628   -0.8918 H   0  0  0  0  0  0  0  0  0  0  0  0
   -4.6937    1.7960    1.6818 H   0  0  0  0  0  0  0  0  0  0  0  0
   -4.8172    0.1214    1.1967 H   0  0  0  0  0  0  0  0  0  0  0  0
   -2.5356    0.5124    1.3662 H   0  0  0  0  0  0  0  0  0  0  0  0
   -2.6254    2.1323    0.7278 H   0  0  0  0  0  0  0  0  0  0  0  0
  1  2  2  0
  2  3  1  0
  3  4  1  0
  4  5  1  0
  5  6  2  0
  6  7  1  0
  7  8  2  0
  8  9  1  0
  2 10  1  0
 10 11  1  0
 11 12  1  0
 12 13  2  0
 13 14  1  0
 14 15  1  0
 13 16  1  0
 16 17  1  0
 17 18  1  0
 18 19  1  0
 19 20  1  0
 20 21  1  0
 21 22  1  0
  9  5  1  0
 15 11  2  0
 22 16  1  0
  3 23  1  0
  3 24  1  0
  4 25  1  0
  4 26  1  0
  8 27  1  0
  9 28  1  0
 10 29  1  0
 12 30  1  0
 14 31  1  0
 16 32  1  0
 17 33  1  0
 17 34  1  0
 18 35  1  0
 18 36  1  0
 19 37  1  0
 19 38  1  0
 20 39  1  0
 20 40  1  0
 21 41  1  0
 21 42  1  0
 22 43  1  0
 22 44  1  0
M  END
>  <Unnamed: 0>  (99) 
702

>  <ID>  (99) 
TRAIN_0702

>  <Canonical_Smiles>  (99) 
O=C(CCc1nnc[nH]1)Nc2cc([nH]n2)C3CCCCCC3

>  <Inhibition>  (99) 
22.905338

>  <TDC_conf_true_inhibitor>  (99) 
0

>  <TDC_conf_non_inhibitor>  (99) 
1

>  <split>  (99) 
1

$$$$
99
     RDKit          3D

 36 37  0  0  0  0  0  0  0  0999 V2000
    2.1615   -2.4749    0.3976 C   0  0  0  0  0  0  0  0  0  0  0  0
    2.1672   -1.0248    0.2626 N   0  0  0  0  0  0  0  0  0  0  0  0
    3.4089   -0.3493    0.6472 C   0  0  0  0  0  0  0  0  0  0  0  0
    3.3776   -0.0251    2.1399 C   0  0  0  0  0  0  0  0  0  0  0  0
    3.6957   -0.8237    3.0155 O   0  0  0  0  0  0  0  0  0  0  0  0
    2.8622    1.2036    2.4495 N   0  0  0  0  0  0  0  0  0  0  0  0
    1.0586   -0.2212    0.0115 C   0  0  0  0  0  0  0  0  0  0  0  0
    1.1430    1.0098    0.1120 O   0  0  0  0  0  0  0  0  0  0  0  0
   -0.2951   -0.9019   -0.3263 C   0  0  0  0  0  0  0  0  0  0  0  0
   -0.9583   -1.4024    0.9497 C   0  0  0  0  0  0  0  0  0  0  0  0
   -1.8990    0.0191    1.5588 S   0  0  0  0  0  0  0  0  0  0  0  0
   -2.2090    0.6814   -0.1326 C   0  0  0  0  0  0  0  0  0  0  0  0
   -3.6372    0.2398   -0.4935 C   0  0  0  0  0  0  0  0  0  0  0  0
   -2.0361    2.2059   -0.1343 C   0  0  0  0  0  0  0  0  0  0  0  0
   -2.1221    2.9756   -1.7961 S   0  0  0  0  0  0  0  0  0  0  0  0
   -1.7867    1.5508   -2.8787 C   0  0  0  0  0  0  0  0  0  0  0  0
   -0.9386    0.4464   -2.2765 C   0  0  0  0  0  0  0  0  0  0  0  0
   -0.0732   -0.1182   -2.9500 O   0  0  0  0  0  0  0  0  0  0  0  0
   -1.2115    0.0406   -0.9857 N   0  0  0  0  0  0  0  0  0  0  0  0
    1.2533   -2.9305    0.0048 H   0  0  0  0  0  0  0  0  0  0  0  0
    2.2486   -2.7296    1.4577 H   0  0  0  0  0  0  0  0  0  0  0  0
    3.0167   -2.8851   -0.1476 H   0  0  0  0  0  0  0  0  0  0  0  0
    4.2713   -0.9882    0.4306 H   0  0  0  0  0  0  0  0  0  0  0  0
    3.5318    0.5751    0.0713 H   0  0  0  0  0  0  0  0  0  0  0  0
    2.2288    1.6310    1.7736 H   0  0  0  0  0  0  0  0  0  0  0  0
    2.6618    1.3697    3.4266 H   0  0  0  0  0  0  0  0  0  0  0  0
   -0.1022   -1.7208   -1.0270 H   0  0  0  0  0  0  0  0  0  0  0  0
   -1.6655   -2.2080    0.7274 H   0  0  0  0  0  0  0  0  0  0  0  0
   -0.2589   -1.7507    1.7136 H   0  0  0  0  0  0  0  0  0  0  0  0
   -3.7375   -0.8528   -0.4833 H   0  0  0  0  0  0  0  0  0  0  0  0
   -4.3742    0.6567    0.2035 H   0  0  0  0  0  0  0  0  0  0  0  0
   -3.9379    0.5597   -1.4939 H   0  0  0  0  0  0  0  0  0  0  0  0
   -2.7972    2.6894    0.4887 H   0  0  0  0  0  0  0  0  0  0  0  0
   -1.0601    2.4902    0.2749 H   0  0  0  0  0  0  0  0  0  0  0  0
   -2.7273    1.1219   -3.2349 H   0  0  0  0  0  0  0  0  0  0  0  0
   -1.2596    1.9402   -3.7562 H   0  0  0  0  0  0  0  0  0  0  0  0
  1  2  1  0
  2  3  1  0
  3  4  1  0
  4  5  2  0
  4  6  1  0
  2  7  1  0
  7  8  2  0
  7  9  1  0
  9 10  1  0
 10 11  1  0
 11 12  1  0
 12 13  1  0
 12 14  1  0
 14 15  1  0
 15 16  1  0
 16 17  1  0
 17 18  2  0
 17 19  1  0
 19  9  1  0
 19 12  1  0
  1 20  1  0
  1 21  1  0
  1 22  1  0
  3 23  1  0
  3 24  1  0
  6 25  1  0
  6 26  1  0
  9 27  1  0
 10 28  1  0
 10 29  1  0
 13 30  1  0
 13 31  1  0
 13 32  1  0
 14 33  1  0
 14 34  1  0
 16 35  1  0
 16 36  1  0
M  END
>  <Unnamed: 0>  (100) 
721

>  <ID>  (100) 
TRAIN_0721

>  <Canonical_Smiles>  (100) 
CN(CC(=O)N)C(=O)C1CSC2(C)CSCC(=O)N12

>  <Inhibition>  (100) 
10.892414

>  <TDC_conf_true_inhibitor>  (100) 
0

>  <TDC_conf_non_inhibitor>  (100) 
1

>  <split>  (100) 
1

$$$$
100
     RDKit          3D

 42 43  0  0  0  0  0  0  0  0999 V2000
   -0.1634    0.1422    2.5686 N   0  0  0  0  0  0  0  0  0  0  0  0
   -0.7189    0.2373    1.3163 C   0  0  0  0  0  0  0  0  0  0  0  0
   -0.0277    0.4288    0.2325 N   0  0  0  0  0  0  0  0  0  0  0  0
    1.3444    0.5138    0.5241 O   0  0  0  0  0  0  0  0  0  0  0  0
    2.0546    0.6548   -0.7075 C   0  0  0  0  0  0  0  0  0  0  0  0
    3.5440    0.7308   -0.4122 C   0  0  0  0  0  0  0  0  0  0  0  0
    4.0820   -0.5805    0.1463 C   0  0  0  0  0  0  0  0  0  0  0  0
    4.0036   -1.6185   -0.8426 O   0  0  0  0  0  0  0  0  0  0  0  0
    5.3590   -1.9369   -1.1551 C   0  0  0  0  0  0  0  0  0  0  0  0
    6.1041   -1.5850    0.1023 C   0  0  0  0  0  0  0  0  0  0  0  0
    5.4538   -0.3917    0.5336 O   0  0  0  0  0  0  0  0  0  0  0  0
   -2.2456    0.1396    1.2070 C   0  0  0  0  0  0  0  0  0  0  0  0
   -2.8136    1.5372    0.9375 C   0  0  0  0  0  0  0  0  0  0  0  0
   -4.2988    1.5631    0.5884 C   0  0  0  0  0  0  0  0  0  0  0  0
   -4.5605    1.3886   -0.9051 C   0  0  0  0  0  0  0  0  0  0  0  0
   -4.3091   -0.0143   -1.4446 C   0  0  0  0  0  0  0  0  0  0  0  0
   -2.8977   -0.5513   -1.2154 C   0  0  0  0  0  0  0  0  0  0  0  0
   -2.6466   -0.9767    0.2311 C   0  0  0  0  0  0  0  0  0  0  0  0
    0.8001    0.4638    2.5653 H   0  0  0  0  0  0  0  0  0  0  0  0
   -0.7117    0.5159    3.3329 H   0  0  0  0  0  0  0  0  0  0  0  0
    1.8227   -0.1880   -1.3689 H   0  0  0  0  0  0  0  0  0  0  0  0
    1.7317    1.5816   -1.1958 H   0  0  0  0  0  0  0  0  0  0  0  0
    3.7431    1.5347    0.3068 H   0  0  0  0  0  0  0  0  0  0  0  0
    4.0796    0.9829   -1.3354 H   0  0  0  0  0  0  0  0  0  0  0  0
    3.5197   -0.9027    1.0297 H   0  0  0  0  0  0  0  0  0  0  0  0
    5.4548   -2.9880   -1.4379 H   0  0  0  0  0  0  0  0  0  0  0  0
    5.6683   -1.3058   -1.9953 H   0  0  0  0  0  0  0  0  0  0  0  0
    7.1705   -1.4100   -0.0590 H   0  0  0  0  0  0  0  0  0  0  0  0
    5.9726   -2.3471    0.8783 H   0  0  0  0  0  0  0  0  0  0  0  0
   -2.6070   -0.1768    2.1962 H   0  0  0  0  0  0  0  0  0  0  0  0
   -2.6653    2.1336    1.8485 H   0  0  0  0  0  0  0  0  0  0  0  0
   -2.2370    2.0556    0.1608 H   0  0  0  0  0  0  0  0  0  0  0  0
   -4.6929    2.5467    0.8749 H   0  0  0  0  0  0  0  0  0  0  0  0
   -4.8563    0.8227    1.1737 H   0  0  0  0  0  0  0  0  0  0  0  0
   -5.6089    1.6443   -1.1039 H   0  0  0  0  0  0  0  0  0  0  0  0
   -3.9590    2.1101   -1.4723 H   0  0  0  0  0  0  0  0  0  0  0  0
   -4.4986    0.0033   -2.5254 H   0  0  0  0  0  0  0  0  0  0  0  0
   -5.0449   -0.7079   -1.0191 H   0  0  0  0  0  0  0  0  0  0  0  0
   -2.1459    0.1657   -1.5621 H   0  0  0  0  0  0  0  0  0  0  0  0
   -2.7853   -1.4436   -1.8449 H   0  0  0  0  0  0  0  0  0  0  0  0
   -3.5469   -1.4737    0.6157 H   0  0  0  0  0  0  0  0  0  0  0  0
   -1.8674   -1.7506    0.2317 H   0  0  0  0  0  0  0  0  0  0  0  0
  1  2  1  0
  2  3  2  3
  3  4  1  0
  4  5  1  0
  5  6  1  0
  6  7  1  0
  7  8  1  0
  8  9  1  0
  9 10  1  0
 10 11  1  0
  2 12  1  0
 12 13  1  0
 13 14  1  0
 14 15  1  0
 15 16  1  0
 16 17  1  0
 17 18  1  0
 11  7  1  0
 18 12  1  0
  1 19  1  0
  1 20  1  0
  5 21  1  0
  5 22  1  0
  6 23  1  0
  6 24  1  0
  7 25  1  0
  9 26  1  0
  9 27  1  0
 10 28  1  0
 10 29  1  0
 12 30  1  0
 13 31  1  0
 13 32  1  0
 14 33  1  0
 14 34  1  0
 15 35  1  0
 15 36  1  0
 16 37  1  0
 16 38  1  0
 17 39  1  0
 17 40  1  0
 18 41  1  0
 18 42  1  0
M  END
>  <Unnamed: 0>  (101) 
725

>  <ID>  (101) 
TRAIN_0725

>  <Canonical_Smiles>  (101) 
NC(=NOCCC1OCCO1)C2CCCCCC2

>  <Inhibition>  (101) 
4.732206

>  <TDC_conf_true_inhibitor>  (101) 
0

>  <TDC_conf_non_inhibitor>  (101) 
1

>  <split>  (101) 
1

$$$$
101
     RDKit          3D

 53 58  0  0  0  0  0  0  0  0999 V2000
   -4.3532    0.7072   -0.6479 C   0  0  0  0  0  0  0  0  0  0  0  0
   -3.7351    0.5883    0.7507 C   0  0  0  0  0  0  0  0  0  0  0  0
   -2.3756    1.0870    0.7682 N   0  0  0  0  0  0  0  0  0  0  0  0
   -2.1420    2.3886    1.0187 N   0  0  0  0  0  0  0  0  0  0  0  0
   -0.8289    2.5732    0.9771 N   0  0  0  0  0  0  0  0  0  0  0  0
   -0.2385    1.3703    0.6972 C   0  0  0  0  0  0  0  0  0  0  0  0
    1.1129    1.0307    0.5460 C   0  0  0  0  0  0  0  0  0  0  0  0
    1.4537   -0.3027    0.2534 C   0  0  0  0  0  0  0  0  0  0  0  0
    0.4372   -1.2660    0.1181 C   0  0  0  0  0  0  0  0  0  0  0  0
   -0.9193   -0.9423    0.2661 C   0  0  0  0  0  0  0  0  0  0  0  0
   -1.2146    0.3912    0.5577 C   0  0  0  0  0  0  0  0  0  0  0  0
    2.8583   -0.6691    0.0933 C   0  0  0  0  0  0  0  0  0  0  0  0
    3.2840   -1.9142   -0.1771 N   0  0  0  0  0  0  0  0  0  0  0  0
    4.6700   -1.7831   -0.2394 O   0  0  0  0  0  0  0  0  0  0  0  0
    4.9517   -0.4683   -0.0009 C   0  0  0  0  0  0  0  0  0  0  0  0
    3.8741    0.2552    0.2087 N   0  0  0  0  0  0  0  0  0  0  0  0
    6.3541   -0.0679   -0.0148 C   0  0  0  0  0  0  0  0  0  0  0  0
    6.6826    1.2846    0.1962 C   0  0  0  0  0  0  0  0  0  0  0  0
    8.0076    1.7426    0.1962 C   0  0  0  0  0  0  0  0  0  0  0  0
    8.9941    0.7833   -0.0243 C   0  0  0  0  0  0  0  0  0  0  0  0
   10.3623    0.8603   -0.0910 N   0  0  0  0  0  0  0  0  0  0  0  0
   10.8433   -0.3959   -0.3308 C   0  0  0  0  0  0  0  0  0  0  0  0
    9.8738   -1.2769   -0.4240 N   0  0  0  0  0  0  0  0  0  0  0  0
    8.7166   -0.5621   -0.2361 C   0  0  0  0  0  0  0  0  0  0  0  0
    7.3840   -1.0012   -0.2332 C   0  0  0  0  0  0  0  0  0  0  0  0
   -5.7345    0.2267   -0.7926 N   0  0  0  0  0  0  0  0  0  0  0  0
   -6.7267    0.9898   -0.0288 C   0  0  0  0  0  0  0  0  0  0  0  0
   -7.4045    0.1747    1.0711 C   0  0  0  0  0  0  0  0  0  0  0  0
   -8.0805   -1.0751    0.5096 C   0  0  0  0  0  0  0  0  0  0  0  0
   -7.3381   -1.6498   -0.6974 C   0  0  0  0  0  0  0  0  0  0  0  0
   -5.8700   -1.2289   -0.7133 C   0  0  0  0  0  0  0  0  0  0  0  0
   -3.7215    0.1741   -1.3714 H   0  0  0  0  0  0  0  0  0  0  0  0
   -4.3175    1.7560   -0.9722 H   0  0  0  0  0  0  0  0  0  0  0  0
   -4.3011    1.1622    1.4931 H   0  0  0  0  0  0  0  0  0  0  0  0
   -3.7043   -0.4510    1.0933 H   0  0  0  0  0  0  0  0  0  0  0  0
    1.8715    1.7997    0.6571 H   0  0  0  0  0  0  0  0  0  0  0  0
    0.6962   -2.3004   -0.1083 H   0  0  0  0  0  0  0  0  0  0  0  0
   -1.6897   -1.6980    0.1571 H   0  0  0  0  0  0  0  0  0  0  0  0
    5.8853    2.0098    0.3658 H   0  0  0  0  0  0  0  0  0  0  0  0
    8.2418    2.7888    0.3604 H   0  0  0  0  0  0  0  0  0  0  0  0
   10.9172    1.6965    0.0184 H   0  0  0  0  0  0  0  0  0  0  0  0
   11.9006   -0.6046   -0.4269 H   0  0  0  0  0  0  0  0  0  0  0  0
    7.1832   -2.0544   -0.3996 H   0  0  0  0  0  0  0  0  0  0  0  0
   -6.2980    1.9035    0.4016 H   0  0  0  0  0  0  0  0  0  0  0  0
   -7.4963    1.3312   -0.7337 H   0  0  0  0  0  0  0  0  0  0  0  0
   -8.1451    0.7886    1.5963 H   0  0  0  0  0  0  0  0  0  0  0  0
   -6.6573   -0.1189    1.8198 H   0  0  0  0  0  0  0  0  0  0  0  0
   -9.1102   -0.8419    0.2129 H   0  0  0  0  0  0  0  0  0  0  0  0
   -8.1500   -1.8292    1.3031 H   0  0  0  0  0  0  0  0  0  0  0  0
   -7.8230   -1.3042   -1.6202 H   0  0  0  0  0  0  0  0  0  0  0  0
   -7.4210   -2.7423   -0.6968 H   0  0  0  0  0  0  0  0  0  0  0  0
   -5.3800   -1.6327    0.1813 H   0  0  0  0  0  0  0  0  0  0  0  0
   -5.3797   -1.6836   -1.5823 H   0  0  0  0  0  0  0  0  0  0  0  0
  1  2  1  0
  2  3  1  0
  3  4  1  0
  4  5  2  0
  5  6  1  0
  6  7  2  0
  7  8  1  0
  8  9  2  0
  9 10  1  0
 10 11  2  0
  8 12  1  0
 12 13  2  0
 13 14  1  0
 14 15  1  0
 15 16  2  0
 15 17  1  0
 17 18  2  0
 18 19  1  0
 19 20  2  0
 20 21  1  0
 21 22  1  0
 22 23  2  0
 23 24  1  0
 24 25  2  0
  1 26  1  0
 26 27  1  0
 27 28  1  0
 28 29  1  0
 29 30  1  0
 30 31  1  0
 11  3  1  0
 11  6  1  0
 16 12  1  0
 25 17  1  0
 24 20  1  0
 31 26  1  0
  1 32  1  0
  1 33  1  0
  2 34  1  0
  2 35  1  0
  7 36  1  0
  9 37  1  0
 10 38  1  0
 18 39  1  0
 19 40  1  0
 21 41  1  0
 22 42  1  0
 25 43  1  0
 27 44  1  0
 27 45  1  0
 28 46  1  0
 28 47  1  0
 29 48  1  0
 29 49  1  0
 30 50  1  0
 30 51  1  0
 31 52  1  0
 31 53  1  0
M  END
>  <Unnamed: 0>  (102) 
732

>  <ID>  (102) 
TRAIN_0732

>  <Canonical_Smiles>  (102) 
C(Cn1nnc2cc(ccc12)c3noc(n3)c4ccc5[nH]cnc5c4)N6CCCCC6

>  <Inhibition>  (102) 
65.456978

>  <TDC_conf_true_inhibitor>  (102) 
1

>  <TDC_conf_non_inhibitor>  (102) 
0

>  <split>  (102) 
1

$$$$
102
     RDKit          3D

 34 37  0  0  0  0  0  0  0  0999 V2000
    3.5446    2.6281   -0.9164 O   0  0  0  0  0  0  0  0  0  0  0  0
    3.3134    1.4148   -0.3346 C   0  0  0  0  0  0  0  0  0  0  0  0
    4.3430    0.6554    0.1489 C   0  0  0  0  0  0  0  0  0  0  0  0
    3.9541   -0.5361    0.6970 C   0  0  0  0  0  0  0  0  0  0  0  0
    2.6725   -0.9400    0.7628 N   0  0  0  0  0  0  0  0  0  0  0  0
    1.7217   -0.1260    0.2652 C   0  0  0  0  0  0  0  0  0  0  0  0
    2.0259    1.0557   -0.2910 N   0  0  0  0  0  0  0  0  0  0  0  0
    0.3858   -0.5227    0.3567 N   0  0  0  0  0  0  0  0  0  0  0  0
    0.2033   -1.9779    0.5071 C   0  0  0  0  0  0  0  0  0  0  0  0
   -1.2695   -2.3710    0.7325 C   0  0  0  0  0  0  0  0  0  0  0  0
   -2.0973   -1.7747   -0.3537 C   0  0  0  0  0  0  0  0  0  0  0  0
   -3.5001   -2.4889   -0.9802 S   0  0  0  0  0  0  0  0  0  0  0  0
   -3.7046   -1.2079   -2.1006 C   0  0  0  0  0  0  0  0  0  0  0  0
   -2.7152   -0.2536   -1.9854 C   0  0  0  0  0  0  0  0  0  0  0  0
   -1.7794   -0.5748   -0.9532 C   0  0  0  0  0  0  0  0  0  0  0  0
   -0.5555    0.2235   -0.5166 C   0  0  0  0  0  0  0  0  0  0  0  0
   -0.9129    1.5489    0.1604 C   0  0  0  0  0  0  0  0  0  0  0  0
   -1.1281    1.6391    1.6603 C   0  0  0  0  0  0  0  0  0  0  0  0
   -2.2805    1.8771    0.7349 C   0  0  0  0  0  0  0  0  0  0  0  0
    4.4930    2.8153   -0.8702 H   0  0  0  0  0  0  0  0  0  0  0  0
    5.3789    0.9530    0.1092 H   0  0  0  0  0  0  0  0  0  0  0  0
    4.6778   -1.2286    1.1159 H   0  0  0  0  0  0  0  0  0  0  0  0
    0.7667   -2.3536    1.3707 H   0  0  0  0  0  0  0  0  0  0  0  0
    0.5818   -2.4893   -0.3891 H   0  0  0  0  0  0  0  0  0  0  0  0
   -1.6142   -1.9860    1.6999 H   0  0  0  0  0  0  0  0  0  0  0  0
   -1.3570   -3.4629    0.7532 H   0  0  0  0  0  0  0  0  0  0  0  0
   -4.5397   -1.2172   -2.7873 H   0  0  0  0  0  0  0  0  0  0  0  0
   -2.6698    0.6359   -2.6020 H   0  0  0  0  0  0  0  0  0  0  0  0
   -0.0536    0.4603   -1.4676 H   0  0  0  0  0  0  0  0  0  0  0  0
   -0.3590    2.3652   -0.2942 H   0  0  0  0  0  0  0  0  0  0  0  0
   -1.1256    0.7243    2.2416 H   0  0  0  0  0  0  0  0  0  0  0  0
   -0.6921    2.4879    2.1739 H   0  0  0  0  0  0  0  0  0  0  0  0
   -3.0680    1.1331    0.7292 H   0  0  0  0  0  0  0  0  0  0  0  0
   -2.6402    2.8936    0.6228 H   0  0  0  0  0  0  0  0  0  0  0  0
  1  2  1  0
  2  3  2  0
  3  4  1  0
  4  5  2  0
  5  6  1  0
  6  7  2  0
  6  8  1  0
  8  9  1  0
  9 10  1  0
 10 11  1  0
 11 12  1  0
 12 13  1  0
 13 14  2  0
 14 15  1  0
 15 16  1  0
 16 17  1  0
 17 18  1  0
 18 19  1  0
  7  2  1  0
 16  8  1  0
 15 11  2  0
 19 17  1  0
  1 20  1  0
  3 21  1  0
  4 22  1  0
  9 23  1  0
  9 24  1  0
 10 25  1  0
 10 26  1  0
 13 27  1  0
 14 28  1  0
 16 29  1  0
 17 30  1  0
 18 31  1  0
 18 32  1  0
 19 33  1  0
 19 34  1  0
M  END
>  <Unnamed: 0>  (103) 
735

>  <ID>  (103) 
TRAIN_0735

>  <Canonical_Smiles>  (103) 
Oc1ccnc(n1)N2CCc3sccc3C2C4CC4

>  <Inhibition>  (103) 
24.414989

>  <TDC_conf_true_inhibitor>  (103) 
0

>  <TDC_conf_non_inhibitor>  (103) 
1

>  <split>  (103) 
1

$$$$
103
     RDKit          3D

 59 61  0  0  0  0  0  0  0  0999 V2000
    9.7409   -0.5061    0.9309 C   0  0  0  0  0  0  0  0  0  0  0  0
    8.8840    0.7344    0.7349 C   0  0  0  0  0  0  0  0  0  0  0  0
    7.4233    0.3902    0.5901 C   0  0  0  0  0  0  0  0  0  0  0  0
    6.8733    0.1415   -0.6723 C   0  0  0  0  0  0  0  0  0  0  0  0
    5.5204   -0.1894   -0.8106 C   0  0  0  0  0  0  0  0  0  0  0  0
    4.6976   -0.2848    0.3165 C   0  0  0  0  0  0  0  0  0  0  0  0
    5.2503   -0.0379    1.5812 C   0  0  0  0  0  0  0  0  0  0  0  0
    6.6009    0.2935    1.7174 C   0  0  0  0  0  0  0  0  0  0  0  0
    3.2453   -0.6417    0.2411 C   0  0  0  0  0  0  0  0  0  0  0  0
    2.5684   -0.6019    1.2698 O   0  0  0  0  0  0  0  0  0  0  0  0
    2.6359   -1.0750   -1.0996 C   0  0  0  0  0  0  0  0  0  0  0  0
    2.9636   -2.5391   -1.3612 C   0  0  0  0  0  0  0  0  0  0  0  0
    1.2022   -0.9798   -1.0492 O   0  0  0  0  0  0  0  0  0  0  0  0
    0.7200    0.2852   -1.1261 C   0  0  0  0  0  0  0  0  0  0  0  0
    1.3837    1.2870   -1.3438 O   0  0  0  0  0  0  0  0  0  0  0  0
   -0.7572    0.2955   -0.9488 C   0  0  0  0  0  0  0  0  0  0  0  0
   -1.4436    1.4885   -1.2054 C   0  0  0  0  0  0  0  0  0  0  0  0
   -2.8315    1.5494   -1.0610 C   0  0  0  0  0  0  0  0  0  0  0  0
   -3.5423    0.4187   -0.6478 C   0  0  0  0  0  0  0  0  0  0  0  0
   -4.9065    0.3849   -0.5087 O   0  0  0  0  0  0  0  0  0  0  0  0
   -5.5601    1.6203   -0.2201 C   0  0  0  0  0  0  0  0  0  0  0  0
   -6.9419    1.3809    0.2772 C   0  0  0  0  0  0  0  0  0  0  0  0
   -8.1081    2.0240   -0.0806 C   0  0  0  0  0  0  0  0  0  0  0  0
   -8.4477    3.1015   -1.0278 C   0  0  0  0  0  0  0  0  0  0  0  0
   -9.1479    1.5038    0.6215 O   0  0  0  0  0  0  0  0  0  0  0  0
   -8.6884    0.5109    1.4610 N   0  0  0  0  0  0  0  0  0  0  0  0
   -7.3690    0.4358    1.2508 C   0  0  0  0  0  0  0  0  0  0  0  0
   -6.5523   -0.5545    1.9915 C   0  0  0  0  0  0  0  0  0  0  0  0
   -2.8593   -0.7882   -0.3910 C   0  0  0  0  0  0  0  0  0  0  0  0
   -3.6396   -1.8448    0.0110 O   0  0  0  0  0  0  0  0  0  0  0  0
   -3.0022   -3.0975    0.2064 C   0  0  0  0  0  0  0  0  0  0  0  0
   -1.4687   -0.8408   -0.5356 C   0  0  0  0  0  0  0  0  0  0  0  0
   10.7964   -0.2296    1.0154 H   0  0  0  0  0  0  0  0  0  0  0  0
    9.6390   -1.1980    0.0898 H   0  0  0  0  0  0  0  0  0  0  0  0
    9.4578   -1.0416    1.8419 H   0  0  0  0  0  0  0  0  0  0  0  0
    9.0201    1.4161    1.5829 H   0  0  0  0  0  0  0  0  0  0  0  0
    9.2235    1.2830   -0.1517 H   0  0  0  0  0  0  0  0  0  0  0  0
    7.4976    0.2090   -1.5615 H   0  0  0  0  0  0  0  0  0  0  0  0
    5.1472   -0.3575   -1.8137 H   0  0  0  0  0  0  0  0  0  0  0  0
    4.6300   -0.1007    2.4738 H   0  0  0  0  0  0  0  0  0  0  0  0
    7.0037    0.4801    2.7112 H   0  0  0  0  0  0  0  0  0  0  0  0
    3.0016   -0.4569   -1.9246 H   0  0  0  0  0  0  0  0  0  0  0  0
    4.0401   -2.7078   -1.4558 H   0  0  0  0  0  0  0  0  0  0  0  0
    2.5927   -3.1716   -0.5472 H   0  0  0  0  0  0  0  0  0  0  0  0
    2.4744   -2.8836   -2.2779 H   0  0  0  0  0  0  0  0  0  0  0  0
   -0.8996    2.3759   -1.5261 H   0  0  0  0  0  0  0  0  0  0  0  0
   -3.3286    2.4856   -1.2954 H   0  0  0  0  0  0  0  0  0  0  0  0
   -5.5987    2.2223   -1.1356 H   0  0  0  0  0  0  0  0  0  0  0  0
   -5.0111    2.1757    0.5519 H   0  0  0  0  0  0  0  0  0  0  0  0
   -8.7649    2.6776   -1.9855 H   0  0  0  0  0  0  0  0  0  0  0  0
   -7.5867    3.7529   -1.2070 H   0  0  0  0  0  0  0  0  0  0  0  0
   -9.2619    3.7223   -0.6385 H   0  0  0  0  0  0  0  0  0  0  0  0
   -7.0939   -0.9545    2.8551 H   0  0  0  0  0  0  0  0  0  0  0  0
   -6.2878   -1.3927    1.3384 H   0  0  0  0  0  0  0  0  0  0  0  0
   -5.6290   -0.0966    2.3609 H   0  0  0  0  0  0  0  0  0  0  0  0
   -2.5241   -3.4457   -0.7142 H   0  0  0  0  0  0  0  0  0  0  0  0
   -3.7731   -3.8255    0.4778 H   0  0  0  0  0  0  0  0  0  0  0  0
   -2.2856   -3.0493    1.0314 H   0  0  0  0  0  0  0  0  0  0  0  0
   -0.9224   -1.7538   -0.3211 H   0  0  0  0  0  0  0  0  0  0  0  0
  1  2  1  0
  2  3  1  0
  3  4  2  0
  4  5  1  0
  5  6  2  0
  6  7  1  0
  7  8  2  0
  6  9  1  0
  9 10  2  0
  9 11  1  0
 11 12  1  0
 11 13  1  0
 13 14  1  0
 14 15  2  0
 14 16  1  0
 16 17  2  0
 17 18  1  0
 18 19  2  0
 19 20  1  0
 20 21  1  0
 21 22  1  0
 22 23  2  0
 23 24  1  0
 23 25  1  0
 25 26  1  0
 26 27  2  0
 27 28  1  0
 19 29  1  0
 29 30  1  0
 30 31  1  0
 29 32  2  0
  8  3  1  0
 32 16  1  0
 27 22  1  0
  1 33  1  0
  1 34  1  0
  1 35  1  0
  2 36  1  0
  2 37  1  0
  4 38  1  0
  5 39  1  0
  7 40  1  0
  8 41  1  0
 11 42  1  0
 12 43  1  0
 12 44  1  0
 12 45  1  0
 17 46  1  0
 18 47  1  0
 21 48  1  0
 21 49  1  0
 24 50  1  0
 24 51  1  0
 24 52  1  0
 28 53  1  0
 28 54  1  0
 28 55  1  0
 31 56  1  0
 31 57  1  0
 31 58  1  0
 32 59  1  0
M  END
>  <Unnamed: 0>  (104) 
738

>  <ID>  (104) 
TRAIN_0738

>  <Canonical_Smiles>  (104) 
CCc1ccc(cc1)C(=O)C(C)OC(=O)c2ccc(OCc3c(C)onc3C)c(OC)c2

>  <Inhibition>  (104) 
47.226517

>  <TDC_conf_true_inhibitor>  (104) 
1

>  <TDC_conf_non_inhibitor>  (104) 
0

>  <split>  (104) 
1

$$$$
104
     RDKit          3D

 48 48  0  0  0  0  0  0  0  0999 V2000
    5.1634    2.1118    1.1555 C   0  0  0  0  0  0  0  0  0  0  0  0
    4.6935    0.8045    0.8556 O   0  0  0  0  0  0  0  0  0  0  0  0
    3.2795    0.7489    0.6018 C   0  0  0  0  0  0  0  0  0  0  0  0
    3.0043    1.0416   -0.8914 C   0  0  0  0  0  0  0  0  0  0  0  0
    1.6104    1.3398   -1.1731 N   0  0  0  0  0  0  0  0  0  0  0  0
    0.7310    0.3819   -1.5950 C   0  0  0  0  0  0  0  0  0  0  0  0
    1.0268   -0.7808   -1.8277 O   0  0  0  0  0  0  0  0  0  0  0  0
   -0.5390    0.8786   -1.6942 N   0  0  0  0  0  0  0  0  0  0  0  0
   -1.5896    0.0423   -2.2295 C   0  0  0  0  0  0  0  0  0  0  0  0
   -2.8891    0.6562   -1.8597 C   0  0  0  0  0  0  0  0  0  0  0  0
   -3.4141    1.7075   -2.4659 N   0  0  0  0  0  0  0  0  0  0  0  0
   -4.5869    1.9030   -1.8117 C   0  0  0  0  0  0  0  0  0  0  0  0
   -4.8266    1.0533   -0.8180 N   0  0  0  0  0  0  0  0  0  0  0  0
   -3.7233    0.2662   -0.8307 N   0  0  0  0  0  0  0  0  0  0  0  0
   -3.5947   -0.8154    0.1640 C   0  0  0  0  0  0  0  0  0  0  0  0
   -3.7633   -2.1837   -0.5212 C   0  0  0  0  0  0  0  0  0  0  0  0
   -2.2466   -0.7435    0.9084 C   0  0  0  0  0  0  0  0  0  0  0  0
   -4.6979   -0.7129    1.2525 C   0  0  0  0  0  0  0  0  0  0  0  0
    2.7503   -0.6265    1.0826 C   0  0  0  0  0  0  0  0  0  0  0  0
    2.8888   -0.7439    2.6067 C   0  0  0  0  0  0  0  0  0  0  0  0
    3.4617   -1.8157    0.4291 C   0  0  0  0  0  0  0  0  0  0  0  0
    4.9653    2.8030    0.3321 H   0  0  0  0  0  0  0  0  0  0  0  0
    6.2443    2.0589    1.3113 H   0  0  0  0  0  0  0  0  0  0  0  0
    4.6993    2.4797    2.0756 H   0  0  0  0  0  0  0  0  0  0  0  0
    2.7785    1.5217    1.2020 H   0  0  0  0  0  0  0  0  0  0  0  0
    3.5655    1.9277   -1.2062 H   0  0  0  0  0  0  0  0  0  0  0  0
    3.3526    0.2243   -1.5306 H   0  0  0  0  0  0  0  0  0  0  0  0
    1.2151    2.1781   -0.7741 H   0  0  0  0  0  0  0  0  0  0  0  0
   -0.6071    1.8537   -1.9502 H   0  0  0  0  0  0  0  0  0  0  0  0
   -1.4778    0.0351   -3.3199 H   0  0  0  0  0  0  0  0  0  0  0  0
   -1.4731   -0.9873   -1.8918 H   0  0  0  0  0  0  0  0  0  0  0  0
   -5.2886    2.6872   -2.0649 H   0  0  0  0  0  0  0  0  0  0  0  0
   -3.7170   -2.9993    0.2096 H   0  0  0  0  0  0  0  0  0  0  0  0
   -4.7298   -2.2498   -1.0348 H   0  0  0  0  0  0  0  0  0  0  0  0
   -2.9888   -2.3761   -1.2682 H   0  0  0  0  0  0  0  0  0  0  0  0
   -2.0619    0.2654    1.2954 H   0  0  0  0  0  0  0  0  0  0  0  0
   -1.3999   -1.0180    0.2760 H   0  0  0  0  0  0  0  0  0  0  0  0
   -2.2280   -1.4353    1.7590 H   0  0  0  0  0  0  0  0  0  0  0  0
   -4.6451    0.2440    1.7855 H   0  0  0  0  0  0  0  0  0  0  0  0
   -5.7023   -0.8032    0.8218 H   0  0  0  0  0  0  0  0  0  0  0  0
   -4.5951   -1.5107    1.9977 H   0  0  0  0  0  0  0  0  0  0  0  0
    1.6808   -0.6952    0.8530 H   0  0  0  0  0  0  0  0  0  0  0  0
    2.4504   -1.6821    2.9637 H   0  0  0  0  0  0  0  0  0  0  0  0
    2.3664    0.0773    3.1086 H   0  0  0  0  0  0  0  0  0  0  0  0
    3.9378   -0.7223    2.9208 H   0  0  0  0  0  0  0  0  0  0  0  0
    4.5360   -1.8107    0.6409 H   0  0  0  0  0  0  0  0  0  0  0  0
    3.3300   -1.8193   -0.6560 H   0  0  0  0  0  0  0  0  0  0  0  0
    3.0539   -2.7602    0.8060 H   0  0  0  0  0  0  0  0  0  0  0  0
  1  2  1  0
  2  3  1  0
  3  4  1  0
  4  5  1  0
  5  6  1  0
  6  7  2  0
  6  8  1  0
  8  9  1  0
  9 10  1  0
 10 11  2  0
 11 12  1  0
 12 13  2  0
 13 14  1  0
 14 15  1  0
 15 16  1  0
 15 17  1  0
 15 18  1  0
  3 19  1  0
 19 20  1  0
 19 21  1  0
 14 10  1  0
  1 22  1  0
  1 23  1  0
  1 24  1  0
  3 25  1  0
  4 26  1  0
  4 27  1  0
  5 28  1  0
  8 29  1  0
  9 30  1  0
  9 31  1  0
 12 32  1  0
 16 33  1  0
 16 34  1  0
 16 35  1  0
 17 36  1  0
 17 37  1  0
 17 38  1  0
 18 39  1  0
 18 40  1  0
 18 41  1  0
 19 42  1  0
 20 43  1  0
 20 44  1  0
 20 45  1  0
 21 46  1  0
 21 47  1  0
 21 48  1  0
M  END
>  <Unnamed: 0>  (105) 
739

>  <ID>  (105) 
TRAIN_0739

>  <Canonical_Smiles>  (105) 
COC(CNC(=O)NCc1ncnn1C(C)(C)C)C(C)C

>  <Inhibition>  (105) 
42.994632

>  <TDC_conf_true_inhibitor>  (105) 
0

>  <TDC_conf_non_inhibitor>  (105) 
1

>  <split>  (105) 
1

$$$$
105
     RDKit          3D

 43 46  0  0  0  0  0  0  0  0999 V2000
    2.4183   -0.5732    4.2184 C   0  0  0  0  0  0  0  0  0  0  0  0
    2.2779    0.3816    3.0735 C   0  0  0  0  0  0  0  0  0  0  0  0
    3.0584    1.4952    3.1202 N   0  0  0  0  0  0  0  0  0  0  0  0
    3.0116    2.4130    2.1323 C   0  0  0  0  0  0  0  0  0  0  0  0
    2.2316    2.3129    1.0494 N   0  0  0  0  0  0  0  0  0  0  0  0
    1.4664    1.2125    1.0263 C   0  0  0  0  0  0  0  0  0  0  0  0
    0.4233    0.9454   -0.2883 S   0  0  0  0  0  0  0  0  0  0  0  0
   -0.1513   -0.5274    0.3710 C   0  0  0  0  0  0  0  0  0  0  0  0
   -1.1650   -1.3219   -0.3158 C   0  0  0  0  0  0  0  0  0  0  0  0
   -1.6562   -2.3404    0.1676 O   0  0  0  0  0  0  0  0  0  0  0  0
   -1.5613   -0.8594   -1.5564 N   0  0  0  0  0  0  0  0  0  0  0  0
   -2.7039   -1.4149   -2.2816 C   0  0  0  0  0  0  0  0  0  0  0  0
   -2.7204   -0.8533   -3.7153 C   0  0  0  0  0  0  0  0  0  0  0  0
   -3.5484   -1.8440   -4.5271 C   0  0  0  0  0  0  0  0  0  0  0  0
   -3.4048   -3.1868   -3.8171 C   0  0  0  0  0  0  0  0  0  0  0  0
   -2.5805   -2.9230   -2.5562 C   0  0  0  0  0  0  0  0  0  0  0  0
   -3.9814   -1.0894   -1.5928 C   0  0  0  0  0  0  0  0  0  0  0  0
   -4.9817   -0.8030   -1.0763 N   0  0  0  0  0  0  0  0  0  0  0  0
    0.4591   -0.7954    1.5869 C   0  0  0  0  0  0  0  0  0  0  0  0
    0.1750   -1.9060    2.3103 N   0  0  0  0  0  0  0  0  0  0  0  0
    1.4126    0.2097    1.9789 C   0  0  0  0  0  0  0  0  0  0  0  0
    3.9110    3.6210    2.2498 C   0  0  0  0  0  0  0  0  0  0  0  0
    3.3271    5.0150    2.1821 C   0  0  0  0  0  0  0  0  0  0  0  0
    3.8567    4.4937    3.4844 C   0  0  0  0  0  0  0  0  0  0  0  0
    2.6675   -1.5735    3.8522 H   0  0  0  0  0  0  0  0  0  0  0  0
    1.4863   -0.6160    4.7895 H   0  0  0  0  0  0  0  0  0  0  0  0
    3.2168   -0.2550    4.8964 H   0  0  0  0  0  0  0  0  0  0  0  0
   -1.2552    0.0749   -1.8003 H   0  0  0  0  0  0  0  0  0  0  0  0
   -3.1263    0.1627   -3.7790 H   0  0  0  0  0  0  0  0  0  0  0  0
   -1.7017   -0.8209   -4.1253 H   0  0  0  0  0  0  0  0  0  0  0  0
   -3.2093   -1.8930   -5.5667 H   0  0  0  0  0  0  0  0  0  0  0  0
   -4.6018   -1.5406   -4.5413 H   0  0  0  0  0  0  0  0  0  0  0  0
   -4.3941   -3.5805   -3.5569 H   0  0  0  0  0  0  0  0  0  0  0  0
   -2.9163   -3.9307   -4.4551 H   0  0  0  0  0  0  0  0  0  0  0  0
   -2.9254   -3.5503   -1.7269 H   0  0  0  0  0  0  0  0  0  0  0  0
   -1.5340   -3.1908   -2.7540 H   0  0  0  0  0  0  0  0  0  0  0  0
   -0.6103   -2.5005    2.0227 H   0  0  0  0  0  0  0  0  0  0  0  0
    0.3511   -1.9712    3.3071 H   0  0  0  0  0  0  0  0  0  0  0  0
    4.8911    3.4904    1.8001 H   0  0  0  0  0  0  0  0  0  0  0  0
    2.2531    5.1194    2.0736 H   0  0  0  0  0  0  0  0  0  0  0  0
    3.8997    5.7748    1.6634 H   0  0  0  0  0  0  0  0  0  0  0  0
    4.7915    4.8963    3.8563 H   0  0  0  0  0  0  0  0  0  0  0  0
    3.1431    4.2423    4.2615 H   0  0  0  0  0  0  0  0  0  0  0  0
  1  2  1  0
  2  3  2  0
  3  4  1  0
  4  5  2  0
  5  6  1  0
  6  7  1  0
  7  8  1  0
  8  9  1  0
  9 10  2  0
  9 11  1  0
 11 12  1  0
 12 13  1  0
 13 14  1  0
 14 15  1  0
 15 16  1  0
 12 17  1  0
 17 18  3  0
  8 19  2  0
 19 20  1  0
 19 21  1  0
  4 22  1  0
 22 23  1  0
 23 24  1  0
 21  2  1  0
 21  6  2  0
 16 12  1  0
 24 22  1  0
  1 25  1  0
  1 26  1  0
  1 27  1  0
 11 28  1  0
 13 29  1  0
 13 30  1  0
 14 31  1  0
 14 32  1  0
 15 33  1  0
 15 34  1  0
 16 35  1  0
 16 36  1  0
 20 37  1  0
 20 38  1  0
 22 39  1  0
 23 40  1  0
 23 41  1  0
 24 42  1  0
 24 43  1  0
M  END
>  <Unnamed: 0>  (106) 
740

>  <ID>  (106) 
TRAIN_0740

>  <Canonical_Smiles>  (106) 
Cc1nc(nc2sc(C(=O)NC3(CCCC3)C#N)c(N)c12)C4CC4

>  <Inhibition>  (106) 
43.878881

>  <TDC_conf_true_inhibitor>  (106) 
0

>  <TDC_conf_non_inhibitor>  (106) 
1

>  <split>  (106) 
1

$$$$
106
     RDKit          3D

 44 46  0  0  0  0  0  0  0  0999 V2000
    4.4223   -0.6142    2.7671 C   0  0  0  0  0  0  0  0  0  0  0  0
    4.0933   -0.5558    1.3544 N   0  0  0  0  0  0  0  0  0  0  0  0
    2.9804    0.2434    1.0292 N   0  0  0  0  0  0  0  0  0  0  0  0
    2.5724    0.3387   -0.2091 C   0  0  0  0  0  0  0  0  0  0  0  0
    1.3708    1.2085   -0.5087 C   0  0  0  0  0  0  0  0  0  0  0  0
    1.4609    2.2701   -1.0964 O   0  0  0  0  0  0  0  0  0  0  0  0
    0.2599    0.5878   -0.0748 O   0  0  0  0  0  0  0  0  0  0  0  0
   -0.9396    1.3284   -0.3062 C   0  0  0  0  0  0  0  0  0  0  0  0
   -2.1048    0.4749    0.1491 C   0  0  0  0  0  0  0  0  0  0  0  0
   -2.7528   -0.3999   -0.7566 C   0  0  0  0  0  0  0  0  0  0  0  0
   -2.3314   -0.5120   -2.1982 C   0  0  0  0  0  0  0  0  0  0  0  0
   -3.8356   -1.1799   -0.3170 C   0  0  0  0  0  0  0  0  0  0  0  0
   -4.2678   -1.1365    1.0101 C   0  0  0  0  0  0  0  0  0  0  0  0
   -5.4450   -1.9512    1.4580 C   0  0  0  0  0  0  0  0  0  0  0  0
   -3.6180   -0.2841    1.9053 C   0  0  0  0  0  0  0  0  0  0  0  0
   -2.5321    0.5088    1.4988 C   0  0  0  0  0  0  0  0  0  0  0  0
   -1.8699    1.3931    2.5229 C   0  0  0  0  0  0  0  0  0  0  0  0
    3.2637   -0.3791   -1.2335 C   0  0  0  0  0  0  0  0  0  0  0  0
    3.1105   -0.4820   -2.5913 C   0  0  0  0  0  0  0  0  0  0  0  0
    2.1949    0.0972   -3.5916 C   0  0  0  0  0  0  0  0  0  0  0  0
    4.0683   -1.3317   -3.0683 O   0  0  0  0  0  0  0  0  0  0  0  0
    4.8550   -1.7881   -2.0166 N   0  0  0  0  0  0  0  0  0  0  0  0
    4.3567   -1.1979   -0.9244 C   0  0  0  0  0  0  0  0  0  0  0  0
    4.8326   -1.3423    0.4386 C   0  0  0  0  0  0  0  0  0  0  0  0
    5.7712   -2.0666    0.7594 O   0  0  0  0  0  0  0  0  0  0  0  0
    4.3550    0.3905    3.1945 H   0  0  0  0  0  0  0  0  0  0  0  0
    5.4318   -1.0022    2.9267 H   0  0  0  0  0  0  0  0  0  0  0  0
    3.7029   -1.2728    3.2618 H   0  0  0  0  0  0  0  0  0  0  0  0
   -0.9098    2.2752    0.2453 H   0  0  0  0  0  0  0  0  0  0  0  0
   -1.0341    1.5847   -1.3677 H   0  0  0  0  0  0  0  0  0  0  0  0
   -2.5707    0.4113   -2.7350 H   0  0  0  0  0  0  0  0  0  0  0  0
   -1.2579   -0.7139   -2.2704 H   0  0  0  0  0  0  0  0  0  0  0  0
   -2.8468   -1.3350   -2.7054 H   0  0  0  0  0  0  0  0  0  0  0  0
   -4.3475   -1.8359   -1.0196 H   0  0  0  0  0  0  0  0  0  0  0  0
   -6.3587   -1.3517    1.4000 H   0  0  0  0  0  0  0  0  0  0  0  0
   -5.3092   -2.2951    2.4890 H   0  0  0  0  0  0  0  0  0  0  0  0
   -5.5684   -2.8420    0.8328 H   0  0  0  0  0  0  0  0  0  0  0  0
   -3.9605   -0.2406    2.9380 H   0  0  0  0  0  0  0  0  0  0  0  0
   -2.0974    2.4438    2.3174 H   0  0  0  0  0  0  0  0  0  0  0  0
   -0.7857    1.2432    2.5196 H   0  0  0  0  0  0  0  0  0  0  0  0
   -2.2195    1.1666    3.5360 H   0  0  0  0  0  0  0  0  0  0  0  0
    2.3338   -0.3651   -4.5742 H   0  0  0  0  0  0  0  0  0  0  0  0
    2.3734    1.1717   -3.6949 H   0  0  0  0  0  0  0  0  0  0  0  0
    1.1530   -0.0540   -3.2939 H   0  0  0  0  0  0  0  0  0  0  0  0
  1  2  1  0
  2  3  1  0
  3  4  2  0
  4  5  1  0
  5  6  2  0
  5  7  1  0
  7  8  1  0
  8  9  1  0
  9 10  2  0
 10 11  1  0
 10 12  1  0
 12 13  2  0
 13 14  1  0
 13 15  1  0
 15 16  2  0
 16 17  1  0
  4 18  1  0
 18 19  2  0
 19 20  1  0
 19 21  1  0
 21 22  1  0
 22 23  2  0
 23 24  1  0
 24 25  2  0
 24  2  1  0
 16  9  1  0
 23 18  1  0
  1 26  1  0
  1 27  1  0
  1 28  1  0
  8 29  1  0
  8 30  1  0
 11 31  1  0
 11 32  1  0
 11 33  1  0
 12 34  1  0
 14 35  1  0
 14 36  1  0
 14 37  1  0
 15 38  1  0
 17 39  1  0
 17 40  1  0
 17 41  1  0
 20 42  1  0
 20 43  1  0
 20 44  1  0
M  END
>  <Unnamed: 0>  (107) 
743

>  <ID>  (107) 
TRAIN_0743

>  <Canonical_Smiles>  (107) 
CN1N=C(C(=O)OCc2c(C)cc(C)cc2C)c3c(C)onc3C1=O

>  <Inhibition>  (107) 
47.641714

>  <TDC_conf_true_inhibitor>  (107) 
1

>  <TDC_conf_non_inhibitor>  (107) 
0

>  <split>  (107) 
1

$$$$
107
     RDKit          3D

 32 34  0  0  0  0  0  0  0  0999 V2000
    3.5423   -2.0364   -1.7362 C   0  0  0  0  0  0  0  0  0  0  0  0
    3.4862   -0.6578   -1.1170 C   0  0  0  0  0  0  0  0  0  0  0  0
    4.5732    0.0493   -1.1796 N   0  0  0  0  0  0  0  0  0  0  0  0
    4.4969    1.2864   -0.6158 C   0  0  0  0  0  0  0  0  0  0  0  0
    5.5464    2.0220   -0.6652 N   0  0  0  0  0  0  0  0  0  0  0  0
    3.4278    1.8494    0.0036 N   0  0  0  0  0  0  0  0  0  0  0  0
    2.3736    1.0999    0.0358 C   0  0  0  0  0  0  0  0  0  0  0  0
    1.2906    1.6722    0.6706 N   0  0  0  0  0  0  0  0  0  0  0  0
    0.2019    0.9716    0.7100 C   0  0  0  0  0  0  0  0  0  0  0  0
    0.0115   -0.3784    0.1362 C   0  0  0  0  0  0  0  0  0  0  0  0
    1.1207   -0.8748   -0.4318 C   0  0  0  0  0  0  0  0  0  0  0  0
    2.3252   -0.1819   -0.5158 N   0  0  0  0  0  0  0  0  0  0  0  0
   -1.2258   -1.1917    0.1818 C   0  0  0  0  0  0  0  0  0  0  0  0
   -1.1806   -2.4170    0.0982 O   0  0  0  0  0  0  0  0  0  0  0  0
   -2.5319   -0.5245    0.3765 C   0  0  0  0  0  0  0  0  0  0  0  0
   -3.4294   -1.1033    1.2832 C   0  0  0  0  0  0  0  0  0  0  0  0
   -4.6802   -0.5228    1.4965 C   0  0  0  0  0  0  0  0  0  0  0  0
   -5.0434    0.6273    0.7958 C   0  0  0  0  0  0  0  0  0  0  0  0
   -4.1641    1.1953   -0.1283 C   0  0  0  0  0  0  0  0  0  0  0  0
   -2.9141    0.6140   -0.3428 C   0  0  0  0  0  0  0  0  0  0  0  0
   -2.0690    1.1529   -1.2717 O   0  0  0  0  0  0  0  0  0  0  0  0
    3.3230   -2.7918   -0.9765 H   0  0  0  0  0  0  0  0  0  0  0  0
    2.8121   -2.1064   -2.5472 H   0  0  0  0  0  0  0  0  0  0  0  0
    4.5373   -2.2340   -2.1460 H   0  0  0  0  0  0  0  0  0  0  0  0
    5.2679    2.8865   -0.1906 H   0  0  0  0  0  0  0  0  0  0  0  0
   -0.6656    1.4037    1.2337 H   0  0  0  0  0  0  0  0  0  0  0  0
    1.1181   -1.8667   -0.8732 H   0  0  0  0  0  0  0  0  0  0  0  0
   -3.1580   -2.0090    1.8229 H   0  0  0  0  0  0  0  0  0  0  0  0
   -5.3741   -0.9716    2.2041 H   0  0  0  0  0  0  0  0  0  0  0  0
   -6.0207    1.0757    0.9629 H   0  0  0  0  0  0  0  0  0  0  0  0
   -4.4755    2.0832   -0.6718 H   0  0  0  0  0  0  0  0  0  0  0  0
   -2.5223    1.8789   -1.7373 H   0  0  0  0  0  0  0  0  0  0  0  0
  1  2  1  0
  2  3  2  0
  3  4  1  0
  4  5  2  3
  4  6  1  0
  6  7  2  0
  7  8  1  0
  8  9  2  0
  9 10  1  0
 10 11  2  0
 11 12  1  0
 10 13  1  0
 13 14  2  0
 13 15  1  0
 15 16  2  0
 16 17  1  0
 17 18  2  0
 18 19  1  0
 19 20  2  0
 20 21  1  0
 12  2  1  0
 12  7  1  0
 20 15  1  0
  1 22  1  0
  1 23  1  0
  1 24  1  0
  5 25  1  0
  9 26  1  0
 11 27  1  0
 16 28  1  0
 17 29  1  0
 18 30  1  0
 19 31  1  0
 21 32  1  0
M  END
>  <Unnamed: 0>  (108) 
745

>  <ID>  (108) 
TRAIN_0745

>  <Canonical_Smiles>  (108) 
CC1=NC(=N)N=C2N=CC(=CN12)C(=O)c3ccccc3O

>  <Inhibition>  (108) 
23.978945

>  <TDC_conf_true_inhibitor>  (108) 
0

>  <TDC_conf_non_inhibitor>  (108) 
1

>  <split>  (108) 
1

$$$$
108
     RDKit          3D

 53 57  0  0  0  0  0  0  0  0999 V2000
   -1.8788    5.3033    0.1829 N   0  0  0  0  0  0  0  0  0  0  0  0
   -2.6206    4.1917    0.3055 C   0  0  0  0  0  0  0  0  0  0  0  0
   -3.9373    4.2507    0.5019 N   0  0  0  0  0  0  0  0  0  0  0  0
   -4.3026    2.9572    0.5489 N   0  0  0  0  0  0  0  0  0  0  0  0
   -3.2675    2.0828    0.4142 C   0  0  0  0  0  0  0  0  0  0  0  0
   -3.3702    0.7462    0.4381 N   0  0  0  0  0  0  0  0  0  0  0  0
   -2.2033    0.0915    0.2588 C   0  0  0  0  0  0  0  0  0  0  0  0
   -2.2188   -1.3142    0.3163 N   0  0  0  0  0  0  0  0  0  0  0  0
   -1.8551   -1.8328    1.6479 C   0  0  0  0  0  0  0  0  0  0  0  0
   -2.9318   -2.8623    1.9900 C   0  0  0  0  0  0  0  0  0  0  0  0
   -3.4614   -3.2801    0.6306 C   0  0  0  0  0  0  0  0  0  0  0  0
   -3.4688   -1.9535   -0.1187 C   0  0  0  0  0  0  0  0  0  0  0  0
   -0.9703    0.7557    0.0495 C   0  0  0  0  0  0  0  0  0  0  0  0
    0.2957   -0.0560   -0.1803 C   0  0  0  0  0  0  0  0  0  0  0  0
    1.4199    0.7175   -0.7458 N   0  0  0  0  0  0  0  0  0  0  0  0
    1.6171    1.9438    0.0318 C   0  0  0  0  0  0  0  0  0  0  0  0
    0.4098    2.8700   -0.1412 C   0  0  0  0  0  0  0  0  0  0  0  0
   -0.9079    2.1742    0.0785 C   0  0  0  0  0  0  0  0  0  0  0  0
   -2.1304    2.8541    0.2529 C   0  0  0  0  0  0  0  0  0  0  0  0
    2.6705   -0.0460   -0.9310 C   0  0  0  0  0  0  0  0  0  0  0  0
    2.5140   -1.1238   -2.0241 C   0  0  0  0  0  0  0  0  0  0  0  0
    3.8406   -1.8273   -2.3108 C   0  0  0  0  0  0  0  0  0  0  0  0
    4.4451   -2.4231   -1.0437 C   0  0  0  0  0  0  0  0  0  0  0  0
    4.5959   -1.3743    0.0533 C   0  0  0  0  0  0  0  0  0  0  0  0
    3.2726   -0.6657    0.3468 C   0  0  0  0  0  0  0  0  0  0  0  0
   -2.3421    6.1659    0.4486 H   0  0  0  0  0  0  0  0  0  0  0  0
   -0.8951    5.2922    0.4122 H   0  0  0  0  0  0  0  0  0  0  0  0
   -5.2780    2.7229    0.6771 H   0  0  0  0  0  0  0  0  0  0  0  0
   -1.7961   -1.0645    2.4286 H   0  0  0  0  0  0  0  0  0  0  0  0
   -0.8785   -2.3250    1.5774 H   0  0  0  0  0  0  0  0  0  0  0  0
   -2.5386   -3.7014    2.5708 H   0  0  0  0  0  0  0  0  0  0  0  0
   -3.7297   -2.3878    2.5739 H   0  0  0  0  0  0  0  0  0  0  0  0
   -4.4521   -3.7399    0.6829 H   0  0  0  0  0  0  0  0  0  0  0  0
   -2.7720   -3.9873    0.1543 H   0  0  0  0  0  0  0  0  0  0  0  0
   -3.4763   -2.1045   -1.2028 H   0  0  0  0  0  0  0  0  0  0  0  0
   -4.3690   -1.3956    0.1663 H   0  0  0  0  0  0  0  0  0  0  0  0
    0.5782   -0.4900    0.7852 H   0  0  0  0  0  0  0  0  0  0  0  0
    0.0511   -0.8659   -0.8747 H   0  0  0  0  0  0  0  0  0  0  0  0
    2.5061    2.4872   -0.3112 H   0  0  0  0  0  0  0  0  0  0  0  0
    1.7667    1.7179    1.0958 H   0  0  0  0  0  0  0  0  0  0  0  0
    0.5141    3.6980    0.5677 H   0  0  0  0  0  0  0  0  0  0  0  0
    0.4098    3.2907   -1.1545 H   0  0  0  0  0  0  0  0  0  0  0  0
    3.4124    0.6636   -1.3260 H   0  0  0  0  0  0  0  0  0  0  0  0
    2.1427   -0.6692   -2.9507 H   0  0  0  0  0  0  0  0  0  0  0  0
    1.7828   -1.8826   -1.7213 H   0  0  0  0  0  0  0  0  0  0  0  0
    4.5459   -1.1123   -2.7522 H   0  0  0  0  0  0  0  0  0  0  0  0
    3.6841   -2.6195   -3.0517 H   0  0  0  0  0  0  0  0  0  0  0  0
    3.8060   -3.2386   -0.6832 H   0  0  0  0  0  0  0  0  0  0  0  0
    5.4232   -2.8611   -1.2722 H   0  0  0  0  0  0  0  0  0  0  0  0
    5.3466   -0.6338   -0.2493 H   0  0  0  0  0  0  0  0  0  0  0  0
    4.9683   -1.8499    0.9678 H   0  0  0  0  0  0  0  0  0  0  0  0
    3.4516    0.1059    1.1037 H   0  0  0  0  0  0  0  0  0  0  0  0
    2.5814   -1.3949    0.7854 H   0  0  0  0  0  0  0  0  0  0  0  0
  1  2  1  0
  2  3  2  0
  3  4  1  0
  4  5  1  0
  5  6  2  0
  6  7  1  0
  7  8  1  0
  8  9  1  0
  9 10  1  0
 10 11  1  0
 11 12  1  0
  7 13  2  0
 13 14  1  0
 14 15  1  0
 15 16  1  0
 16 17  1  0
 17 18  1  0
 18 19  2  0
 15 20  1  0
 20 21  1  0
 21 22  1  0
 22 23  1  0
 23 24  1  0
 24 25  1  0
 19  2  1  0
 19  5  1  0
 12  8  1  0
 18 13  1  0
 25 20  1  0
  1 26  1  0
  1 27  1  0
  4 28  1  0
  9 29  1  0
  9 30  1  0
 10 31  1  0
 10 32  1  0
 11 33  1  0
 11 34  1  0
 12 35  1  0
 12 36  1  0
 14 37  1  0
 14 38  1  0
 16 39  1  0
 16 40  1  0
 17 41  1  0
 17 42  1  0
 20 43  1  0
 21 44  1  0
 21 45  1  0
 22 46  1  0
 22 47  1  0
 23 48  1  0
 23 49  1  0
 24 50  1  0
 24 51  1  0
 25 52  1  0
 25 53  1  0
M  END
>  <Unnamed: 0>  (109) 
757

>  <ID>  (109) 
TRAIN_0757

>  <Canonical_Smiles>  (109) 
Nc1n[nH]c2nc(N3CCCC3)c4CN(CCc4c12)C5CCCCC5

>  <Inhibition>  (109) 
42.0802

>  <TDC_conf_true_inhibitor>  (109) 
0

>  <TDC_conf_non_inhibitor>  (109) 
1

>  <split>  (109) 
1

$$$$
109
     RDKit          3D

 55 56  0  0  0  0  0  0  0  0999 V2000
   -6.1924   -0.5092   -1.8591 C   0  0  0  0  0  0  0  0  0  0  0  0
   -4.9999    0.4113   -1.5659 C   0  0  0  0  0  0  0  0  0  0  0  0
   -5.4817    1.5760   -0.6945 C   0  0  0  0  0  0  0  0  0  0  0  0
   -4.4180    0.8978   -2.8981 C   0  0  0  0  0  0  0  0  0  0  0  0
   -4.0571   -0.4254   -0.8460 O   0  0  0  0  0  0  0  0  0  0  0  0
   -2.8635    0.0769   -0.4297 C   0  0  0  0  0  0  0  0  0  0  0  0
   -2.4500    1.2067   -0.6367 O   0  0  0  0  0  0  0  0  0  0  0  0
   -2.0877   -1.0067    0.2878 C   0  0  0  0  0  0  0  0  0  0  0  0
   -1.0499   -0.4054    1.2429 C   0  0  0  0  0  0  0  0  0  0  0  0
   -0.0701   -1.4084    1.8865 C   0  0  0  0  0  0  0  0  0  0  0  0
   -0.8466   -2.4930    2.6617 C   0  0  0  0  0  0  0  0  0  0  0  0
    0.8075   -2.0997    0.8311 C   0  0  0  0  0  0  0  0  0  0  0  0
    0.8306   -0.7790    2.8796 N   0  0  0  0  0  0  0  0  0  0  0  0
    1.3642    0.8011    2.9533 S   0  0  0  0  0  6  0  0  0  0  0  0
    2.2924    0.8413    4.0644 O   0  0  0  0  0  0  0  0  0  0  0  0
    0.2259    1.6890    2.9022 O   0  0  0  0  0  0  0  0  0  0  0  0
    2.3226    1.0048    1.4735 C   0  0  0  0  0  0  0  0  0  0  0  0
    1.8786    1.8627    0.4621 C   0  0  0  0  0  0  0  0  0  0  0  0
    2.6516    2.0318   -0.6873 C   0  0  0  0  0  0  0  0  0  0  0  0
    3.8586    1.3429   -0.8171 C   0  0  0  0  0  0  0  0  0  0  0  0
    4.6326    1.5185   -1.9663 N   0  0  0  0  0  0  0  0  0  0  0  0
    5.7452    0.7786   -2.2654 C   0  0  0  0  0  0  0  0  0  0  0  0
    6.4162    1.0207   -3.2659 O   0  0  0  0  0  0  0  0  0  0  0  0
    6.0226   -0.4089   -1.3739 C   0  0  0  0  0  0  0  0  0  0  0  0
    5.6820   -0.1218    0.0784 C   0  0  0  0  0  0  0  0  0  0  0  0
    4.3194    0.5011    0.2033 C   0  0  0  0  0  0  0  0  0  0  0  0
    3.5515    0.3423    1.3621 C   0  0  0  0  0  0  0  0  0  0  0  0
   -6.9820    0.0134   -2.4086 H   0  0  0  0  0  0  0  0  0  0  0  0
   -5.8795   -1.3803   -2.4455 H   0  0  0  0  0  0  0  0  0  0  0  0
   -6.6189   -0.9031   -0.9291 H   0  0  0  0  0  0  0  0  0  0  0  0
   -6.3035    2.1172   -1.1739 H   0  0  0  0  0  0  0  0  0  0  0  0
   -5.8238    1.2161    0.2826 H   0  0  0  0  0  0  0  0  0  0  0  0
   -4.6837    2.2987   -0.4995 H   0  0  0  0  0  0  0  0  0  0  0  0
   -3.6185    1.6290   -2.7522 H   0  0  0  0  0  0  0  0  0  0  0  0
   -3.9832    0.0647   -3.4615 H   0  0  0  0  0  0  0  0  0  0  0  0
   -5.1833    1.3770   -3.5171 H   0  0  0  0  0  0  0  0  0  0  0  0
   -1.6158   -1.6261   -0.4813 H   0  0  0  0  0  0  0  0  0  0  0  0
   -2.7962   -1.6205    0.8556 H   0  0  0  0  0  0  0  0  0  0  0  0
   -1.5935    0.1363    2.0280 H   0  0  0  0  0  0  0  0  0  0  0  0
   -0.4792    0.3473    0.6905 H   0  0  0  0  0  0  0  0  0  0  0  0
   -1.4610   -3.1126    1.9996 H   0  0  0  0  0  0  0  0  0  0  0  0
   -1.5037   -2.0416    3.4144 H   0  0  0  0  0  0  0  0  0  0  0  0
   -0.1637   -3.1685    3.1920 H   0  0  0  0  0  0  0  0  0  0  0  0
    1.6021   -2.6920    1.3010 H   0  0  0  0  0  0  0  0  0  0  0  0
    1.2901   -1.3719    0.1710 H   0  0  0  0  0  0  0  0  0  0  0  0
    0.2255   -2.7799    0.1998 H   0  0  0  0  0  0  0  0  0  0  0  0
    1.3014   -1.3852    3.5524 H   0  0  0  0  0  0  0  0  0  0  0  0
    0.9386    2.4028    0.5618 H   0  0  0  0  0  0  0  0  0  0  0  0
    2.2980    2.6956   -1.4728 H   0  0  0  0  0  0  0  0  0  0  0  0
    4.3838    2.2293   -2.6425 H   0  0  0  0  0  0  0  0  0  0  0  0
    7.0799   -0.6803   -1.4590 H   0  0  0  0  0  0  0  0  0  0  0  0
    5.4265   -1.2476   -1.7515 H   0  0  0  0  0  0  0  0  0  0  0  0
    5.7313   -1.0551    0.6501 H   0  0  0  0  0  0  0  0  0  0  0  0
    6.4163    0.5723    0.5059 H   0  0  0  0  0  0  0  0  0  0  0  0
    3.9114   -0.2811    2.1779 H   0  0  0  0  0  0  0  0  0  0  0  0
  1  2  1  0
  2  3  1  0
  2  4  1  0
  2  5  1  0
  5  6  1  0
  6  7  2  0
  6  8  1  0
  8  9  1  0
  9 10  1  0
 10 11  1  0
 10 12  1  0
 10 13  1  0
 13 14  1  0
 14 15  2  0
 14 16  2  0
 14 17  1  0
 17 18  2  0
 18 19  1  0
 19 20  2  0
 20 21  1  0
 21 22  1  0
 22 23  2  0
 22 24  1  0
 24 25  1  0
 25 26  1  0
 26 27  2  0
 27 17  1  0
 26 20  1  0
  1 28  1  0
  1 29  1  0
  1 30  1  0
  3 31  1  0
  3 32  1  0
  3 33  1  0
  4 34  1  0
  4 35  1  0
  4 36  1  0
  8 37  1  0
  8 38  1  0
  9 39  1  0
  9 40  1  0
 11 41  1  0
 11 42  1  0
 11 43  1  0
 12 44  1  0
 12 45  1  0
 12 46  1  0
 13 47  1  0
 18 48  1  0
 19 49  1  0
 21 50  1  0
 24 51  1  0
 24 52  1  0
 25 53  1  0
 25 54  1  0
 27 55  1  0
M  END
>  <Unnamed: 0>  (110) 
761

>  <ID>  (110) 
TRAIN_0761

>  <Canonical_Smiles>  (110) 
CC(C)(C)OC(=O)CCC(C)(C)NS(=O)(=O)c1ccc2NC(=O)CCc2c1

>  <Inhibition>  (110) 
0.5

>  <TDC_conf_true_inhibitor>  (110) 
0

>  <TDC_conf_non_inhibitor>  (110) 
1

>  <split>  (110) 
1

$$$$
110
     RDKit          3D

 47 50  0  0  0  0  0  0  0  0999 V2000
   -4.1065    0.6564   -3.0755 C   0  0  0  0  0  0  0  0  0  0  0  0
   -3.9540   -0.1325   -1.8304 C   0  0  0  0  0  0  0  0  0  0  0  0
   -4.6166   -1.3101   -1.4610 C   0  0  0  0  0  0  0  0  0  0  0  0
   -4.1053   -1.6588   -0.2249 C   0  0  0  0  0  0  0  0  0  0  0  0
   -4.4225   -2.8838    0.5495 C   0  0  0  0  0  0  0  0  0  0  0  0
   -3.1994   -0.6508    0.1235 N   0  0  0  0  0  0  0  0  0  0  0  0
   -3.0857    0.2522   -0.8982 N   0  0  0  0  0  0  0  0  0  0  0  0
   -2.4232   -0.4339    1.3128 C   0  0  0  0  0  0  0  0  0  0  0  0
   -2.6391   -1.1521    2.4749 C   0  0  0  0  0  0  0  0  0  0  0  0
   -1.9237   -0.9512    3.6075 N   0  0  0  0  0  0  0  0  0  0  0  0
   -0.9773    0.0183    3.5246 C   0  0  0  0  0  0  0  0  0  0  0  0
   -0.7081    0.7654    2.3752 C   0  0  0  0  0  0  0  0  0  0  0  0
   -1.4625    0.5377    1.2789 N   0  0  0  0  0  0  0  0  0  0  0  0
    0.2831    1.7579    2.3482 N   0  0  0  0  0  0  0  0  0  0  0  0
    1.5982    1.3867    2.8924 C   0  0  0  0  0  0  0  0  0  0  0  0
    2.3546    0.4673    1.9214 C   0  0  0  0  0  0  0  0  0  0  0  0
    2.2969    0.9777    0.4991 C   0  0  0  0  0  0  0  0  0  0  0  0
    1.3853    1.9073    0.1489 C   0  0  0  0  0  0  0  0  0  0  0  0
    0.3723    2.5134    1.0881 C   0  0  0  0  0  0  0  0  0  0  0  0
    3.2478    0.4139   -0.4827 C   0  0  0  0  0  0  0  0  0  0  0  0
    3.9103    1.2418   -1.4041 C   0  0  0  0  0  0  0  0  0  0  0  0
    4.8272    0.7132   -2.3188 C   0  0  0  0  0  0  0  0  0  0  0  0
    5.0884   -0.6513   -2.3121 C   0  0  0  0  0  0  0  0  0  0  0  0
    5.9738   -1.2107   -3.1842 O   0  0  0  0  0  0  0  0  0  0  0  0
    4.4504   -1.4902   -1.4090 C   0  0  0  0  0  0  0  0  0  0  0  0
    3.5351   -0.9593   -0.4960 C   0  0  0  0  0  0  0  0  0  0  0  0
   -4.8919    0.2386   -3.7137 H   0  0  0  0  0  0  0  0  0  0  0  0
   -4.3756    1.6925   -2.8446 H   0  0  0  0  0  0  0  0  0  0  0  0
   -3.1719    0.6598   -3.6462 H   0  0  0  0  0  0  0  0  0  0  0  0
   -5.3521   -1.8593   -2.0333 H   0  0  0  0  0  0  0  0  0  0  0  0
   -5.0663   -2.6489    1.4016 H   0  0  0  0  0  0  0  0  0  0  0  0
   -4.9685   -3.6007   -0.0741 H   0  0  0  0  0  0  0  0  0  0  0  0
   -3.5158   -3.3911    0.8906 H   0  0  0  0  0  0  0  0  0  0  0  0
   -3.4071   -1.8983    2.5948 H   0  0  0  0  0  0  0  0  0  0  0  0
   -0.4438    0.1973    4.4505 H   0  0  0  0  0  0  0  0  0  0  0  0
    2.1791    2.3066    3.0440 H   0  0  0  0  0  0  0  0  0  0  0  0
    1.5315    0.9223    3.8815 H   0  0  0  0  0  0  0  0  0  0  0  0
    1.9192   -0.5385    1.9628 H   0  0  0  0  0  0  0  0  0  0  0  0
    3.3954    0.3897    2.2585 H   0  0  0  0  0  0  0  0  0  0  0  0
    1.3138    2.2561   -0.8777 H   0  0  0  0  0  0  0  0  0  0  0  0
   -0.5963    2.6323    0.5876 H   0  0  0  0  0  0  0  0  0  0  0  0
    0.7030    3.5332    1.3232 H   0  0  0  0  0  0  0  0  0  0  0  0
    3.7258    2.3136   -1.4113 H   0  0  0  0  0  0  0  0  0  0  0  0
    5.3231    1.3797   -3.0165 H   0  0  0  0  0  0  0  0  0  0  0  0
    6.3071   -0.5149   -3.7746 H   0  0  0  0  0  0  0  0  0  0  0  0
    4.6563   -2.5564   -1.4182 H   0  0  0  0  0  0  0  0  0  0  0  0
    3.0354   -1.6383    0.1900 H   0  0  0  0  0  0  0  0  0  0  0  0
  1  2  1  0
  2  3  1  0
  3  4  2  0
  4  5  1  0
  4  6  1  0
  6  7  1  0
  6  8  1  0
  8  9  2  0
  9 10  1  0
 10 11  2  0
 11 12  1  0
 12 13  2  0
 12 14  1  0
 14 15  1  0
 15 16  1  0
 16 17  1  0
 17 18  2  0
 18 19  1  0
 17 20  1  0
 20 21  2  0
 21 22  1  0
 22 23  2  0
 23 24  1  0
 23 25  1  0
 25 26  2  0
  7  2  2  0
 13  8  1  0
 19 14  1  0
 26 20  1  0
  1 27  1  0
  1 28  1  0
  1 29  1  0
  3 30  1  0
  5 31  1  0
  5 32  1  0
  5 33  1  0
  9 34  1  0
 11 35  1  0
 15 36  1  0
 15 37  1  0
 16 38  1  0
 16 39  1  0
 18 40  1  0
 19 41  1  0
 19 42  1  0
 21 43  1  0
 22 44  1  0
 24 45  1  0
 25 46  1  0
 26 47  1  0
M  END
>  <Unnamed: 0>  (111) 
767

>  <ID>  (111) 
TRAIN_0767

>  <Canonical_Smiles>  (111) 
Cc1cc(C)n(n1)c2cncc(n2)N3CCC(=CC3)c4ccc(O)cc4

>  <Inhibition>  (111) 
67.343555

>  <TDC_conf_true_inhibitor>  (111) 
1

>  <TDC_conf_non_inhibitor>  (111) 
0

>  <split>  (111) 
1

$$$$
111
     RDKit          3D

 29 30  0  0  0  0  0  0  0  0999 V2000
    4.9185   -1.0435    1.1299 O   0  0  0  0  0  0  0  0  0  0  0  0
    4.0200   -0.2497    0.5108 C   0  0  0  0  0  0  0  0  0  0  0  0
    4.3922    0.5901   -0.2947 O   0  0  0  0  0  0  0  0  0  0  0  0
    2.5962   -0.5086    0.9772 C   0  0  0  0  0  0  0  0  0  0  0  0
    1.6455    0.2069    0.1470 N   0  0  0  0  0  0  0  0  0  0  0  0
    1.1272   -0.3500   -0.9990 C   0  0  0  0  0  0  0  0  0  0  0  0
    1.2981   -1.5221   -1.3258 O   0  0  0  0  0  0  0  0  0  0  0  0
    0.2502    0.5954   -1.8154 C   0  0  0  0  0  0  0  0  0  0  0  0
   -1.0001    0.8411   -1.1260 N   0  0  0  0  0  0  0  0  0  0  0  0
   -2.0763   -0.1132   -1.0776 C   0  0  0  0  0  0  0  0  0  0  0  0
   -1.7239   -1.3615   -0.4737 N   0  0  0  0  0  0  0  0  0  0  0  0
   -2.3527   -1.5329    0.7397 C   0  0  0  0  0  0  0  0  0  0  0  0
   -2.1734   -2.4538    1.5140 O   0  0  0  0  0  0  0  0  0  0  0  0
   -3.2169   -0.4787    0.9473 N   0  0  0  0  0  0  0  0  0  0  0  0
   -3.0688    0.5124   -0.0653 C   0  0  0  0  0  0  0  0  0  0  0  0
   -2.3945    1.6709    0.4281 N   0  0  0  0  0  0  0  0  0  0  0  0
   -1.1444    1.8031   -0.1417 C   0  0  0  0  0  0  0  0  0  0  0  0
   -0.3028    2.6177    0.1971 O   0  0  0  0  0  0  0  0  0  0  0  0
    5.7772   -0.7797    0.7373 H   0  0  0  0  0  0  0  0  0  0  0  0
    2.4853   -0.1412    2.0008 H   0  0  0  0  0  0  0  0  0  0  0  0
    2.3910   -1.5821    0.9324 H   0  0  0  0  0  0  0  0  0  0  0  0
    1.5339    1.2092    0.2880 H   0  0  0  0  0  0  0  0  0  0  0  0
    0.0419    0.1590   -2.7969 H   0  0  0  0  0  0  0  0  0  0  0  0
    0.7856    1.5402   -1.9585 H   0  0  0  0  0  0  0  0  0  0  0  0
   -2.4997   -0.2772   -2.0726 H   0  0  0  0  0  0  0  0  0  0  0  0
   -0.9597   -1.9676   -0.7519 H   0  0  0  0  0  0  0  0  0  0  0  0
   -3.6715   -0.3616    1.8403 H   0  0  0  0  0  0  0  0  0  0  0  0
   -4.0381    0.7863   -0.4895 H   0  0  0  0  0  0  0  0  0  0  0  0
   -2.6399    2.1910    1.2569 H   0  0  0  0  0  0  0  0  0  0  0  0
  1  2  1  0
  2  3  2  0
  2  4  1  0
  4  5  1  0
  5  6  1  0
  6  7  2  0
  6  8  1  0
  8  9  1  0
  9 10  1  0
 10 11  1  0
 11 12  1  0
 12 13  2  0
 12 14  1  0
 14 15  1  0
 15 16  1  0
 16 17  1  0
 17 18  2  0
 17  9  1  0
 15 10  1  0
  1 19  1  0
  4 20  1  0
  4 21  1  0
  5 22  1  0
  8 23  1  0
  8 24  1  0
 10 25  1  0
 11 26  1  0
 14 27  1  0
 15 28  1  0
 16 29  1  0
M  END
>  <Unnamed: 0>  (112) 
770

>  <ID>  (112) 
TRAIN_0770

>  <Canonical_Smiles>  (112) 
OC(=O)CNC(=O)CN1C2NC(=O)NC2NC1=O

>  <Inhibition>  (112) 
0.5

>  <TDC_conf_true_inhibitor>  (112) 
0

>  <TDC_conf_non_inhibitor>  (112) 
1

>  <split>  (112) 
1

$$$$
112
     RDKit          3D

 61 65  0  0  0  0  0  0  0  0999 V2000
    4.7775   -3.5184    2.5235 C   0  0  0  0  0  0  0  0  0  0  0  0
    4.5774   -2.5953    1.3559 C   0  0  0  0  0  0  0  0  0  0  0  0
    5.6268   -2.4057    0.4509 C   0  0  0  0  0  0  0  0  0  0  0  0
    5.4771   -1.5587   -0.6481 C   0  0  0  0  0  0  0  0  0  0  0  0
    4.2758   -0.8702   -0.8719 C   0  0  0  0  0  0  0  0  0  0  0  0
    4.1675    0.0238   -2.0780 C   0  0  0  0  0  0  0  0  0  0  0  0
    3.2122   -1.0451    0.0338 C   0  0  0  0  0  0  0  0  0  0  0  0
    1.9245   -0.3577   -0.1244 C   0  0  0  0  0  0  0  0  0  0  0  0
    0.8972   -0.5596    0.7202 C   0  0  0  0  0  0  0  0  0  0  0  0
   -0.4541    0.1062    0.6137 C   0  0  0  0  0  0  0  0  0  0  0  0
   -0.4475    1.3910   -0.1234 N   0  0  0  0  0  0  0  0  0  0  0  0
    0.0277    2.4725    0.7640 C   0  0  0  0  0  0  0  0  0  0  0  0
    0.4058    3.6971    0.0022 C   0  0  0  0  0  0  0  0  0  0  0  0
   -0.3959    4.7910    0.1577 O   0  0  0  0  0  0  0  0  0  0  0  0
    0.1296    5.7770   -0.6110 C   0  0  0  0  0  0  0  0  0  0  0  0
    1.2566    5.3327   -1.2618 C   0  0  0  0  0  0  0  0  0  0  0  0
    1.4355    3.9872   -0.8680 C   0  0  0  0  0  0  0  0  0  0  0  0
   -1.7967    1.7069   -0.6399 C   0  0  0  0  0  0  0  0  0  0  0  0
   -2.2192    0.8060   -1.7568 C   0  0  0  0  0  0  0  0  0  0  0  0
   -1.4735    0.3360   -2.7398 N   0  0  0  0  0  0  0  0  0  0  0  0
   -2.3015   -0.4059   -3.5411 N   0  0  0  0  0  0  0  0  0  0  0  0
   -3.5412   -0.3934   -3.0791 N   0  0  0  0  0  0  0  0  0  0  0  0
   -3.4938    0.3433   -1.9541 N   0  0  0  0  0  0  0  0  0  0  0  0
   -4.7073    0.6045   -1.2177 C   0  0  0  0  0  0  0  0  0  0  0  0
   -4.9759   -0.3699   -0.0733 C   0  0  0  0  0  0  0  0  0  0  0  0
   -5.0314   -1.8489   -0.4214 C   0  0  0  0  0  0  0  0  0  0  0  0
   -4.8137   -2.4745    0.9356 C   0  0  0  0  0  0  0  0  0  0  0  0
   -3.7834   -1.5453    1.5494 C   0  0  0  0  0  0  0  0  0  0  0  0
   -3.9892   -0.2425    0.9688 O   0  0  0  0  0  0  0  0  0  0  0  0
    1.0603   -1.5111    1.8546 C   0  0  0  0  0  0  0  0  0  0  0  0
    0.1398   -1.7580    2.6299 O   0  0  0  0  0  0  0  0  0  0  0  0
    2.2844   -2.0993    2.0055 N   0  0  0  0  0  0  0  0  0  0  0  0
    3.3688   -1.9125    1.1338 C   0  0  0  0  0  0  0  0  0  0  0  0
    4.6620   -2.9723    3.4627 H   0  0  0  0  0  0  0  0  0  0  0  0
    4.0578   -4.3410    2.4852 H   0  0  0  0  0  0  0  0  0  0  0  0
    5.7808   -3.9595    2.5243 H   0  0  0  0  0  0  0  0  0  0  0  0
    6.5741   -2.9234    0.5883 H   0  0  0  0  0  0  0  0  0  0  0  0
    6.3106   -1.4447   -1.3368 H   0  0  0  0  0  0  0  0  0  0  0  0
    3.3557   -0.3102   -2.7335 H   0  0  0  0  0  0  0  0  0  0  0  0
    3.9897    1.0597   -1.7691 H   0  0  0  0  0  0  0  0  0  0  0  0
    5.0890    0.0139   -2.6705 H   0  0  0  0  0  0  0  0  0  0  0  0
    1.7988    0.3177   -0.9652 H   0  0  0  0  0  0  0  0  0  0  0  0
   -1.0940   -0.6248    0.1037 H   0  0  0  0  0  0  0  0  0  0  0  0
   -0.8980    0.2623    1.6059 H   0  0  0  0  0  0  0  0  0  0  0  0
   -0.7223    2.7128    1.5289 H   0  0  0  0  0  0  0  0  0  0  0  0
    0.9282    2.1535    1.3053 H   0  0  0  0  0  0  0  0  0  0  0  0
   -0.4021    6.7175   -0.5926 H   0  0  0  0  0  0  0  0  0  0  0  0
    1.8685    5.9084   -1.9379 H   0  0  0  0  0  0  0  0  0  0  0  0
    2.2120    3.3013   -1.1776 H   0  0  0  0  0  0  0  0  0  0  0  0
   -2.5227    1.7040    0.1807 H   0  0  0  0  0  0  0  0  0  0  0  0
   -1.8128    2.7192   -1.0643 H   0  0  0  0  0  0  0  0  0  0  0  0
   -5.5384    0.5814   -1.9341 H   0  0  0  0  0  0  0  0  0  0  0  0
   -4.6352    1.6288   -0.8358 H   0  0  0  0  0  0  0  0  0  0  0  0
   -5.9327   -0.0837    0.3834 H   0  0  0  0  0  0  0  0  0  0  0  0
   -5.9777   -2.1421   -0.8873 H   0  0  0  0  0  0  0  0  0  0  0  0
   -4.2111   -2.1459   -1.0833 H   0  0  0  0  0  0  0  0  0  0  0  0
   -5.7450   -2.4376    1.5148 H   0  0  0  0  0  0  0  0  0  0  0  0
   -4.4775   -3.5154    0.8941 H   0  0  0  0  0  0  0  0  0  0  0  0
   -3.8708   -1.4790    2.6360 H   0  0  0  0  0  0  0  0  0  0  0  0
   -2.7682   -1.8670    1.3004 H   0  0  0  0  0  0  0  0  0  0  0  0
    2.3608   -2.7371    2.7847 H   0  0  0  0  0  0  0  0  0  0  0  0
  1  2  1  0
  2  3  2  0
  3  4  1  0
  4  5  2  0
  5  6  1  0
  5  7  1  0
  7  8  1  0
  8  9  2  0
  9 10  1  0
 10 11  1  0
 11 12  1  0
 12 13  1  0
 13 14  1  0
 14 15  1  0
 15 16  2  0
 16 17  1  0
 11 18  1  0
 18 19  1  0
 19 20  2  0
 20 21  1  0
 21 22  2  0
 22 23  1  0
 23 24  1  0
 24 25  1  0
 25 26  1  0
 26 27  1  0
 27 28  1  0
 28 29  1  0
  9 30  1  0
 30 31  2  0
 30 32  1  0
 32 33  1  0
 33  2  1  0
 33  7  2  0
 17 13  2  0
 23 19  1  0
 29 25  1  0
  1 34  1  0
  1 35  1  0
  1 36  1  0
  3 37  1  0
  4 38  1  0
  6 39  1  0
  6 40  1  0
  6 41  1  0
  8 42  1  0
 10 43  1  0
 10 44  1  0
 12 45  1  0
 12 46  1  0
 15 47  1  0
 16 48  1  0
 17 49  1  0
 18 50  1  0
 18 51  1  0
 24 52  1  0
 24 53  1  0
 25 54  1  0
 26 55  1  0
 26 56  1  0
 27 57  1  0
 27 58  1  0
 28 59  1  0
 28 60  1  0
 32 61  1  0
M  END
>  <Unnamed: 0>  (113) 
778

>  <ID>  (113) 
TRAIN_0778

>  <Canonical_Smiles>  (113) 
Cc1ccc(C)c2C=C(CN(Cc3occc3)Cc4nnnn4CC5CCCO5)C(=O)Nc12

>  <Inhibition>  (113) 
20.772118

>  <TDC_conf_true_inhibitor>  (113) 
1

>  <TDC_conf_non_inhibitor>  (113) 
0

>  <split>  (113) 
1

$$$$
113
     RDKit          3D

 41 42  0  0  0  0  0  0  0  0999 V2000
    6.7598    0.1264   -0.5017 C   0  0  0  0  0  0  0  0  0  0  0  0
    5.7463    1.1086   -0.6733 O   0  0  0  0  0  0  0  0  0  0  0  0
    4.4696    0.7563   -0.3292 C   0  0  0  0  0  0  0  0  0  0  0  0
    3.5227    1.7612   -0.5219 C   0  0  0  0  0  0  0  0  0  0  0  0
    2.1804    1.5400   -0.2130 C   0  0  0  0  0  0  0  0  0  0  0  0
    1.7599    0.2991    0.2851 C   0  0  0  0  0  0  0  0  0  0  0  0
    0.3425    0.0807    0.6374 C   0  0  0  0  0  0  0  0  0  0  0  0
   -0.6864    0.4625   -0.1390 C   0  0  0  0  0  0  0  0  0  0  0  0
   -2.1013    0.2709    0.1301 C   0  0  0  0  0  0  0  0  0  0  0  0
   -3.0432    0.8211   -0.6510 C   0  0  0  0  0  0  0  0  0  0  0  0
   -4.5190    0.5908   -0.4436 C   0  0  0  0  0  0  0  0  0  0  0  0
   -5.2708    1.9255   -0.5059 C   0  0  0  0  0  0  0  0  0  0  0  0
   -5.0386   -0.3535   -1.5357 C   0  0  0  0  0  0  0  0  0  0  0  0
   -4.7416   -0.0108    0.8651 N   0  0  0  0  0  0  0  0  0  0  0  0
   -3.7920   -0.6800    1.5672 C   0  0  0  0  0  0  0  0  0  0  0  0
   -4.1958   -1.6210    2.8760 S   0  0  0  0  0  0  0  0  0  0  0  0
   -2.5002   -0.5164    1.1771 N   0  0  0  0  0  0  0  0  0  0  0  0
    2.7182   -0.7152    0.4983 C   0  0  0  0  0  0  0  0  0  0  0  0
    2.2397   -1.8975    1.0118 O   0  0  0  0  0  0  0  0  0  0  0  0
    3.1615   -2.9628    1.1977 C   0  0  0  0  0  0  0  0  0  0  0  0
    4.0660   -0.4792    0.1839 C   0  0  0  0  0  0  0  0  0  0  0  0
    7.7088    0.5653   -0.8248 H   0  0  0  0  0  0  0  0  0  0  0  0
    6.8640   -0.1530    0.5519 H   0  0  0  0  0  0  0  0  0  0  0  0
    6.5689   -0.7515   -1.1276 H   0  0  0  0  0  0  0  0  0  0  0  0
    3.8334    2.7283   -0.9100 H   0  0  0  0  0  0  0  0  0  0  0  0
    1.4711    2.3518   -0.3540 H   0  0  0  0  0  0  0  0  0  0  0  0
    0.1925   -0.4392    1.5782 H   0  0  0  0  0  0  0  0  0  0  0  0
   -0.4649    0.9678   -1.0784 H   0  0  0  0  0  0  0  0  0  0  0  0
   -2.7588    1.4330   -1.5028 H   0  0  0  0  0  0  0  0  0  0  0  0
   -5.1411    2.4170   -1.4770 H   0  0  0  0  0  0  0  0  0  0  0  0
   -4.9188    2.6170    0.2694 H   0  0  0  0  0  0  0  0  0  0  0  0
   -6.3457    1.7806   -0.3453 H   0  0  0  0  0  0  0  0  0  0  0  0
   -6.1093   -0.5511   -1.4069 H   0  0  0  0  0  0  0  0  0  0  0  0
   -4.8939    0.0698   -2.5365 H   0  0  0  0  0  0  0  0  0  0  0  0
   -4.5270   -1.3232   -1.5047 H   0  0  0  0  0  0  0  0  0  0  0  0
   -5.6951   -0.1846    1.1573 H   0  0  0  0  0  0  0  0  0  0  0  0
   -1.8080   -0.9939    1.7385 H   0  0  0  0  0  0  0  0  0  0  0  0
    2.6061   -3.8203    1.5898 H   0  0  0  0  0  0  0  0  0  0  0  0
    3.9266   -2.6979    1.9347 H   0  0  0  0  0  0  0  0  0  0  0  0
    3.6126   -3.2660    0.2472 H   0  0  0  0  0  0  0  0  0  0  0  0
    4.8008   -1.2568    0.3424 H   0  0  0  0  0  0  0  0  0  0  0  0
  1  2  1  0
  2  3  1  0
  3  4  2  0
  4  5  1  0
  5  6  2  0
  6  7  1  0
  7  8  2  0
  8  9  1  0
  9 10  2  0
 10 11  1  0
 11 12  1  0
 11 13  1  0
 11 14  1  0
 14 15  1  0
 15 16  2  0
 15 17  1  0
  6 18  1  0
 18 19  1  0
 19 20  1  0
 18 21  2  0
 21  3  1  0
 17  9  1  0
  1 22  1  0
  1 23  1  0
  1 24  1  0
  4 25  1  0
  5 26  1  0
  7 27  1  0
  8 28  1  0
 10 29  1  0
 12 30  1  0
 12 31  1  0
 12 32  1  0
 13 33  1  0
 13 34  1  0
 13 35  1  0
 14 36  1  0
 17 37  1  0
 20 38  1  0
 20 39  1  0
 20 40  1  0
 21 41  1  0
M  END
>  <Unnamed: 0>  (114) 
782

>  <ID>  (114) 
TRAIN_0782

>  <Canonical_Smiles>  (114) 
COc1ccc(\C=C\C2=CC(C)(C)NC(=S)N2)c(OC)c1

>  <Inhibition>  (114) 
44.546592

>  <TDC_conf_true_inhibitor>  (114) 
0

>  <TDC_conf_non_inhibitor>  (114) 
1

>  <split>  (114) 
1

$$$$
114
     RDKit          3D

 66 68  0  0  0  0  0  0  0  0999 V2000
    9.7810    2.0651   -1.1069 C   0  0  0  0  0  0  0  0  0  0  0  0
    8.3837    1.4704   -1.1645 C   0  0  0  0  0  0  0  0  0  0  0  0
    8.0890    0.6251    0.0718 C   0  0  0  0  0  0  0  0  0  0  0  0
    6.7513    0.0573    0.0370 N   0  0  0  0  0  0  0  0  0  0  0  0
    6.5704   -1.0960   -0.6170 N   0  0  0  0  0  0  0  0  0  0  0  0
    5.2645   -1.3647   -0.4794 C   0  0  0  0  0  0  0  0  0  0  0  0
    4.7493   -2.6076   -1.1049 C   0  0  0  0  0  0  0  0  0  0  0  0
    4.6055   -0.3568    0.2841 C   0  0  0  0  0  0  0  0  0  0  0  0
    3.2958   -0.1753    0.7044 N   0  0  0  0  0  0  0  0  0  0  0  0
    2.1985   -0.9625    0.4113 C   0  0  0  0  0  0  0  0  0  0  0  0
    2.1797   -1.9706   -0.2813 O   0  0  0  0  0  0  0  0  0  0  0  0
    0.9430   -0.4230    1.0790 C   0  0  0  0  0  0  0  0  0  0  0  0
   -0.3044   -1.2016    0.6657 C   0  0  0  0  0  0  0  0  0  0  0  0
   -1.5598   -0.6626    1.3306 C   0  0  0  0  0  0  0  0  0  0  0  0
   -2.3550    0.2026    0.6679 C   0  0  0  0  0  0  0  0  0  0  0  0
   -3.6545    0.8106    1.1275 C   0  0  0  0  0  0  0  0  0  0  0  0
   -4.7582    0.6506    0.0996 C   0  0  0  0  0  0  0  0  0  0  0  0
   -4.9900    1.6229   -0.8892 C   0  0  0  0  0  0  0  0  0  0  0  0
   -4.2511    2.7647   -0.9748 O   0  0  0  0  0  0  0  0  0  0  0  0
   -6.0104    1.4187   -1.8064 C   0  0  0  0  0  0  0  0  0  0  0  0
   -6.4578    2.2751   -2.9070 C   0  0  0  0  0  0  0  0  0  0  0  0
   -6.0318    3.3619   -3.2400 O   0  0  0  0  0  0  0  0  0  0  0  0
   -7.4834    1.6111   -3.5251 O   0  0  0  0  0  0  0  0  0  0  0  0
   -7.7475    0.3345   -2.9188 C   0  0  0  0  0  0  0  0  0  0  0  0
   -6.7726    0.2651   -1.8105 C   0  0  0  0  0  0  0  0  0  0  0  0
   -6.5567   -0.7460   -0.8791 C   0  0  0  0  0  0  0  0  0  0  0  0
   -7.3705   -2.0065   -0.9181 C   0  0  0  0  0  0  0  0  0  0  0  0
   -5.5740   -0.5128    0.1044 C   0  0  0  0  0  0  0  0  0  0  0  0
   -5.3425   -1.4738    1.0611 O   0  0  0  0  0  0  0  0  0  0  0  0
   -6.2491   -1.3242    2.1568 C   0  0  0  0  0  0  0  0  0  0  0  0
   -1.8230   -1.2051    2.7104 C   0  0  0  0  0  0  0  0  0  0  0  0
    5.6035    0.5552    0.5984 C   0  0  0  0  0  0  0  0  0  0  0  0
    5.5810    1.8317    1.3604 C   0  0  0  0  0  0  0  0  0  0  0  0
    9.8953    2.7152   -0.2334 H   0  0  0  0  0  0  0  0  0  0  0  0
    9.9761    2.6635   -2.0023 H   0  0  0  0  0  0  0  0  0  0  0  0
   10.5402    1.2787   -1.0516 H   0  0  0  0  0  0  0  0  0  0  0  0
    8.2874    0.8583   -2.0699 H   0  0  0  0  0  0  0  0  0  0  0  0
    7.6492    2.2798   -1.2533 H   0  0  0  0  0  0  0  0  0  0  0  0
    8.7951   -0.2106    0.1522 H   0  0  0  0  0  0  0  0  0  0  0  0
    8.1839    1.2188    0.9871 H   0  0  0  0  0  0  0  0  0  0  0  0
    5.5573   -3.1841   -1.5702 H   0  0  0  0  0  0  0  0  0  0  0  0
    4.0279   -2.3741   -1.8925 H   0  0  0  0  0  0  0  0  0  0  0  0
    4.2874   -3.2572   -0.3554 H   0  0  0  0  0  0  0  0  0  0  0  0
    3.1331    0.6420    1.2755 H   0  0  0  0  0  0  0  0  0  0  0  0
    0.8301    0.6314    0.8000 H   0  0  0  0  0  0  0  0  0  0  0  0
    1.0885   -0.4767    2.1638 H   0  0  0  0  0  0  0  0  0  0  0  0
   -0.1919   -2.2662    0.9086 H   0  0  0  0  0  0  0  0  0  0  0  0
   -0.4114   -1.1636   -0.4265 H   0  0  0  0  0  0  0  0  0  0  0  0
   -2.0484    0.4991   -0.3351 H   0  0  0  0  0  0  0  0  0  0  0  0
   -3.4888    1.8757    1.3286 H   0  0  0  0  0  0  0  0  0  0  0  0
   -3.9899    0.4106    2.0862 H   0  0  0  0  0  0  0  0  0  0  0  0
   -3.3644    2.6211   -0.6106 H   0  0  0  0  0  0  0  0  0  0  0  0
   -8.7810    0.3212   -2.5617 H   0  0  0  0  0  0  0  0  0  0  0  0
   -7.5856   -0.4469   -3.6664 H   0  0  0  0  0  0  0  0  0  0  0  0
   -8.3174   -1.8584   -0.3900 H   0  0  0  0  0  0  0  0  0  0  0  0
   -6.8373   -2.8467   -0.4626 H   0  0  0  0  0  0  0  0  0  0  0  0
   -7.5855   -2.3008   -1.9506 H   0  0  0  0  0  0  0  0  0  0  0  0
   -6.2623   -0.2969    2.5397 H   0  0  0  0  0  0  0  0  0  0  0  0
   -7.2612   -1.6282    1.8747 H   0  0  0  0  0  0  0  0  0  0  0  0
   -5.9116   -1.9837    2.9610 H   0  0  0  0  0  0  0  0  0  0  0  0
   -0.9766   -0.9904    3.3709 H   0  0  0  0  0  0  0  0  0  0  0  0
   -2.7114   -0.7853    3.1843 H   0  0  0  0  0  0  0  0  0  0  0  0
   -1.9573   -2.2910    2.6668 H   0  0  0  0  0  0  0  0  0  0  0  0
    6.1264    2.6184    0.8291 H   0  0  0  0  0  0  0  0  0  0  0  0
    4.5617    2.1986    1.5105 H   0  0  0  0  0  0  0  0  0  0  0  0
    6.0386    1.6950    2.3453 H   0  0  0  0  0  0  0  0  0  0  0  0
  1  2  1  0
  2  3  1  0
  3  4  1  0
  4  5  1  0
  5  6  2  0
  6  7  1  0
  6  8  1  0
  8  9  1  0
  9 10  1  0
 10 11  2  0
 10 12  1  0
 12 13  1  0
 13 14  1  0
 14 15  2  0
 15 16  1  0
 16 17  1  0
 17 18  2  0
 18 19  1  0
 18 20  1  0
 20 21  1  0
 21 22  2  0
 21 23  1  0
 23 24  1  0
 24 25  1  0
 25 26  1  0
 26 27  1  0
 26 28  2  0
 28 29  1  0
 29 30  1  0
 14 31  1  0
  8 32  2  0
 32 33  1  0
 32  4  1  0
 28 17  1  0
 25 20  2  0
  1 34  1  0
  1 35  1  0
  1 36  1  0
  2 37  1  0
  2 38  1  0
  3 39  1  0
  3 40  1  0
  7 41  1  0
  7 42  1  0
  7 43  1  0
  9 44  1  0
 12 45  1  0
 12 46  1  0
 13 47  1  0
 13 48  1  0
 15 49  1  0
 16 50  1  0
 16 51  1  0
 19 52  1  0
 24 53  1  0
 24 54  1  0
 27 55  1  0
 27 56  1  0
 27 57  1  0
 30 58  1  0
 30 59  1  0
 30 60  1  0
 31 61  1  0
 31 62  1  0
 31 63  1  0
 33 64  1  0
 33 65  1  0
 33 66  1  0
M  END
>  <Unnamed: 0>  (115) 
784

>  <ID>  (115) 
TRAIN_0784

>  <Canonical_Smiles>  (115) 
CCCn1nc(C)c(NC(=O)CC\C(=C\Cc2c(O)c3C(=O)OCc3c(C)c2OC)\C)c1C

>  <Inhibition>  (115) 
58.479039

>  <TDC_conf_true_inhibitor>  (115) 
1

>  <TDC_conf_non_inhibitor>  (115) 
0

>  <split>  (115) 
1

$$$$
115
     RDKit          3D

 57 59  0  0  0  0  0  0  0  0999 V2000
   -2.5674   -4.6344    0.2853 C   0  0  0  0  0  0  0  0  0  0  0  0
   -1.9353   -4.1394   -0.9363 N   0  0  0  0  0  0  0  0  0  0  0  0
   -0.5672   -4.6301   -1.0557 C   0  0  0  0  0  0  0  0  0  0  0  0
   -2.0379   -2.6739   -1.0554 C   0  0  0  0  0  0  0  0  0  0  0  0
   -1.2501   -1.8220   -0.0338 C   0  0  0  0  0  0  0  0  0  0  0  0
   -1.4281   -0.3779   -0.2352 N   0  0  0  0  0  0  0  0  0  0  0  0
   -0.5998    0.2681   -1.2597 C   0  0  0  0  0  0  0  0  0  0  0  0
    0.7564    0.6066   -0.7113 C   0  0  0  0  0  0  0  0  0  0  0  0
    1.8488   -0.1530   -0.9113 C   0  0  0  0  0  0  0  0  0  0  0  0
    3.1633    0.2229   -0.3730 C   0  0  0  0  0  0  0  0  0  0  0  0
    4.3184   -0.5633   -0.5444 C   0  0  0  0  0  0  0  0  0  0  0  0
    4.3015   -1.8628   -1.3027 C   0  0  0  0  0  0  0  0  0  0  0  0
    5.5339   -0.1205    0.0099 C   0  0  0  0  0  0  0  0  0  0  0  0
    5.6143    1.0760    0.7351 C   0  0  0  0  0  0  0  0  0  0  0  0
    6.9300    1.5400    1.2878 C   0  0  0  0  0  0  0  0  0  0  0  0
    4.4659    1.8565    0.8875 C   0  0  0  0  0  0  0  0  0  0  0  0
    3.2550    1.4275    0.3427 C   0  0  0  0  0  0  0  0  0  0  0  0
    2.1142    2.2220    0.5114 N   0  0  0  0  0  0  0  0  0  0  0  0
    0.8813    1.8973    0.0217 C   0  0  0  0  0  0  0  0  0  0  0  0
   -0.0843    2.6425    0.1725 O   0  0  0  0  0  0  0  0  0  0  0  0
   -2.5698    0.2011    0.3269 C   0  0  0  0  0  0  0  0  0  0  0  0
   -3.4220   -0.4912    0.8803 O   0  0  0  0  0  0  0  0  0  0  0  0
   -2.6341    1.5698    0.2143 N   0  0  0  0  0  0  0  0  0  0  0  0
   -3.7317    2.3998    0.5195 C   0  0  0  0  0  0  0  0  0  0  0  0
   -3.4883    3.7769    0.6095 C   0  0  0  0  0  0  0  0  0  0  0  0
   -4.5281    4.6675    0.8918 C   0  0  0  0  0  0  0  0  0  0  0  0
   -5.8195    4.1828    1.0785 C   0  0  0  0  0  0  0  0  0  0  0  0
   -7.1022    5.2755    1.4250 Cl  0  0  0  0  0  0  0  0  0  0  0  0
   -6.0775    2.8182    0.9811 C   0  0  0  0  0  0  0  0  0  0  0  0
   -5.0349    1.9287    0.6979 C   0  0  0  0  0  0  0  0  0  0  0  0
   -3.6054   -4.2903    0.3530 H   0  0  0  0  0  0  0  0  0  0  0  0
   -2.6019   -5.7297    0.2774 H   0  0  0  0  0  0  0  0  0  0  0  0
   -2.0378   -4.3201    1.1909 H   0  0  0  0  0  0  0  0  0  0  0  0
   -0.1013   -4.2600   -1.9756 H   0  0  0  0  0  0  0  0  0  0  0  0
   -0.5606   -5.7240   -1.1201 H   0  0  0  0  0  0  0  0  0  0  0  0
    0.0620   -4.3396   -0.2076 H   0  0  0  0  0  0  0  0  0  0  0  0
   -1.7148   -2.3999   -2.0678 H   0  0  0  0  0  0  0  0  0  0  0  0
   -3.0989   -2.3943   -1.0238 H   0  0  0  0  0  0  0  0  0  0  0  0
   -0.1800   -2.0438   -0.0821 H   0  0  0  0  0  0  0  0  0  0  0  0
   -1.5750   -2.0667    0.9839 H   0  0  0  0  0  0  0  0  0  0  0  0
   -1.0923    1.1564   -1.6689 H   0  0  0  0  0  0  0  0  0  0  0  0
   -0.5115   -0.4218   -2.1075 H   0  0  0  0  0  0  0  0  0  0  0  0
    1.7709   -1.0776   -1.4720 H   0  0  0  0  0  0  0  0  0  0  0  0
    3.9982   -1.6938   -2.3408 H   0  0  0  0  0  0  0  0  0  0  0  0
    5.2913   -2.3313   -1.3230 H   0  0  0  0  0  0  0  0  0  0  0  0
    3.6148   -2.5715   -0.8285 H   0  0  0  0  0  0  0  0  0  0  0  0
    6.4349   -0.7186   -0.1234 H   0  0  0  0  0  0  0  0  0  0  0  0
    7.5477    0.6879    1.5904 H   0  0  0  0  0  0  0  0  0  0  0  0
    6.7837    2.1655    2.1749 H   0  0  0  0  0  0  0  0  0  0  0  0
    7.4695    2.1193    0.5322 H   0  0  0  0  0  0  0  0  0  0  0  0
    4.5205    2.7954    1.4323 H   0  0  0  0  0  0  0  0  0  0  0  0
    2.1762    3.0955    1.0165 H   0  0  0  0  0  0  0  0  0  0  0  0
   -1.7342    2.0437    0.1631 H   0  0  0  0  0  0  0  0  0  0  0  0
   -2.4841    4.1704    0.4663 H   0  0  0  0  0  0  0  0  0  0  0  0
   -4.3216    5.7315    0.9640 H   0  0  0  0  0  0  0  0  0  0  0  0
   -7.0843    2.4343    1.1215 H   0  0  0  0  0  0  0  0  0  0  0  0
   -5.2712    0.8719    0.6151 H   0  0  0  0  0  0  0  0  0  0  0  0
  1  2  1  0
  2  3  1  0
  2  4  1  0
  4  5  1  0
  5  6  1  0
  6  7  1  0
  7  8  1  0
  8  9  2  0
  9 10  1  0
 10 11  2  0
 11 12  1  0
 11 13  1  0
 13 14  2  0
 14 15  1  0
 14 16  1  0
 16 17  2  0
 17 18  1  0
 18 19  1  0
 19 20  2  0
  6 21  1  0
 21 22  2  0
 21 23  1  0
 23 24  1  0
 24 25  2  0
 25 26  1  0
 26 27  2  0
 27 28  1  0
 27 29  1  0
 29 30  2  0
 19  8  1  0
 17 10  1  0
 30 24  1  0
  1 31  1  0
  1 32  1  0
  1 33  1  0
  3 34  1  0
  3 35  1  0
  3 36  1  0
  4 37  1  0
  4 38  1  0
  5 39  1  0
  5 40  1  0
  7 41  1  0
  7 42  1  0
  9 43  1  0
 12 44  1  0
 12 45  1  0
 12 46  1  0
 13 47  1  0
 15 48  1  0
 15 49  1  0
 15 50  1  0
 16 51  1  0
 18 52  1  0
 23 53  1  0
 25 54  1  0
 26 55  1  0
 29 56  1  0
 30 57  1  0
M  END
>  <Unnamed: 0>  (116) 
792

>  <ID>  (116) 
TRAIN_0792

>  <Canonical_Smiles>  (116) 
CN(C)CCN(CC1=Cc2c(C)cc(C)cc2NC1=O)C(=O)Nc3ccc(Cl)cc3

>  <Inhibition>  (116) 
13.071306

>  <TDC_conf_true_inhibitor>  (116) 
0

>  <TDC_conf_non_inhibitor>  (116) 
1

>  <split>  (116) 
1

$$$$
116
     RDKit          3D

 30 33  0  0  0  0  0  0  0  0999 V2000
    4.2993    0.9769   -0.6102 C   0  0  0  0  0  0  0  0  0  0  0  0
    4.4388   -0.3747    0.0706 C   0  0  0  0  0  0  0  0  0  0  0  0
    3.2992   -1.2883   -0.3381 C   0  0  0  0  0  0  0  0  0  0  0  0
    1.9341   -0.6678   -0.1752 C   0  0  0  0  0  0  0  0  0  0  0  0
    0.8935   -1.4473   -0.1237 N   0  0  0  0  0  0  0  0  0  0  0  0
   -0.2746   -0.7541   -0.0655 N   0  0  0  0  0  0  0  0  0  0  0  0
   -1.5190   -1.3087   -0.0104 C   0  0  0  0  0  0  0  0  0  0  0  0
   -2.3838   -0.2416    0.0105 C   0  0  0  0  0  0  0  0  0  0  0  0
   -1.7007    0.9502   -0.0288 N   0  0  0  0  0  0  0  0  0  0  0  0
   -0.4238    0.6287   -0.0735 C   0  0  0  0  0  0  0  0  0  0  0  0
    0.6566    1.4523   -0.1075 N   0  0  0  0  0  0  0  0  0  0  0  0
    1.8112    0.8590   -0.1521 C   0  0  0  0  0  0  0  0  0  0  0  0
    3.0644    1.6957   -0.1015 C   0  0  0  0  0  0  0  0  0  0  0  0
   -3.9401   -0.3261    0.0702 C   0  0  0  0  0  0  0  0  0  0  0  0
   -4.7503    0.7884    0.0883 C   0  0  0  0  0  0  0  0  0  0  0  0
   -6.1331    0.4450    0.1443 C   0  0  0  0  0  0  0  0  0  0  0  0
   -6.3229   -0.9195    0.1667 C   0  0  0  0  0  0  0  0  0  0  0  0
   -4.8395   -1.7735    0.1203 S   0  0  0  0  0  0  0  0  0  0  0  0
    4.2384    0.8447   -1.6973 H   0  0  0  0  0  0  0  0  0  0  0  0
    5.1859    1.5882   -0.4079 H   0  0  0  0  0  0  0  0  0  0  0  0
    4.4483   -0.2468    1.1599 H   0  0  0  0  0  0  0  0  0  0  0  0
    5.3930   -0.8350   -0.2093 H   0  0  0  0  0  0  0  0  0  0  0  0
    3.3398   -2.2156    0.2445 H   0  0  0  0  0  0  0  0  0  0  0  0
    3.4037   -1.5640   -1.3947 H   0  0  0  0  0  0  0  0  0  0  0  0
   -1.6646   -2.3776    0.0049 H   0  0  0  0  0  0  0  0  0  0  0  0
    2.9036    2.6123   -0.6802 H   0  0  0  0  0  0  0  0  0  0  0  0
    3.2112    1.9934    0.9439 H   0  0  0  0  0  0  0  0  0  0  0  0
   -4.3651    1.8014    0.0625 H   0  0  0  0  0  0  0  0  0  0  0  0
   -6.9438    1.1627    0.1669 H   0  0  0  0  0  0  0  0  0  0  0  0
   -7.2594   -1.4583    0.2080 H   0  0  0  0  0  0  0  0  0  0  0  0
  1  2  1  0
  2  3  1  0
  3  4  1  0
  4  5  2  0
  5  6  1  0
  6  7  1  0
  7  8  2  0
  8  9  1  0
  9 10  2  0
 10 11  1  0
 11 12  2  0
 12 13  1  0
  8 14  1  0
 14 15  2  0
 15 16  1  0
 16 17  2  0
 17 18  1  0
 13  1  1  0
 12  4  1  0
 10  6  1  0
 18 14  1  0
  1 19  1  0
  1 20  1  0
  2 21  1  0
  2 22  1  0
  3 23  1  0
  3 24  1  0
  7 25  1  0
 13 26  1  0
 13 27  1  0
 15 28  1  0
 16 29  1  0
 17 30  1  0
M  END
>  <Unnamed: 0>  (117) 
801

>  <ID>  (117) 
TRAIN_0801

>  <Canonical_Smiles>  (117) 
C1CCc2nn3cc(nc3nc2C1)c4cccs4

>  <Inhibition>  (117) 
78.523841

>  <TDC_conf_true_inhibitor>  (117) 
1

>  <TDC_conf_non_inhibitor>  (117) 
0

>  <split>  (117) 
1

$$$$
117
     RDKit          3D

 37 39  0  0  0  0  0  0  0  0999 V2000
   -4.3361    2.8617   -0.4907 C   0  0  0  0  0  0  0  0  0  0  0  0
   -3.8248    1.5036   -0.1290 C   0  0  0  0  0  0  0  0  0  0  0  0
   -4.6655    0.5573    0.4374 C   0  0  0  0  0  0  0  0  0  0  0  0
   -4.2469   -0.6800    0.7849 N   0  0  0  0  0  0  0  0  0  0  0  0
   -2.9364   -0.9574    0.5465 C   0  0  0  0  0  0  0  0  0  0  0  0
   -2.4674   -2.3192    0.9629 C   0  0  0  0  0  0  0  0  0  0  0  0
   -2.0807   -0.0150   -0.0432 C   0  0  0  0  0  0  0  0  0  0  0  0
   -2.5214    1.2296   -0.3735 N   0  0  0  0  0  0  0  0  0  0  0  0
   -0.6628   -0.2554   -0.3409 C   0  0  0  0  0  0  0  0  0  0  0  0
   -0.2653   -1.2117   -1.2833 C   0  0  0  0  0  0  0  0  0  0  0  0
    1.0892   -1.4281   -1.5344 C   0  0  0  0  0  0  0  0  0  0  0  0
    1.4653   -2.3810   -2.4449 O   0  0  0  0  0  0  0  0  0  0  0  0
    2.0805   -0.7011   -0.8589 C   0  0  0  0  0  0  0  0  0  0  0  0
    3.3773   -1.0062   -1.1935 O   0  0  0  0  0  0  0  0  0  0  0  0
    4.2816   -0.9782   -0.0906 C   0  0  0  0  0  0  0  0  0  0  0  0
    4.8761    0.4212    0.0849 C   0  0  0  0  0  0  0  0  0  0  0  0
    3.9050    1.5208    0.0457 N   0  0  0  0  0  0  0  0  0  0  0  0
    2.6849    1.2009    0.7859 C   0  0  0  0  0  0  0  0  0  0  0  0
    1.7104    0.3086    0.0453 C   0  0  0  0  0  0  0  0  0  0  0  0
    0.3352    0.5004    0.3006 C   0  0  0  0  0  0  0  0  0  0  0  0
   -4.7167    3.3727    0.3991 H   0  0  0  0  0  0  0  0  0  0  0  0
   -3.5388    3.4761   -0.9213 H   0  0  0  0  0  0  0  0  0  0  0  0
   -5.1394    2.7797   -1.2294 H   0  0  0  0  0  0  0  0  0  0  0  0
   -5.7113    0.7683    0.6337 H   0  0  0  0  0  0  0  0  0  0  0  0
   -2.2544   -2.9368    0.0858 H   0  0  0  0  0  0  0  0  0  0  0  0
   -1.5725   -2.2481    1.5889 H   0  0  0  0  0  0  0  0  0  0  0  0
   -3.2389   -2.8291    1.5500 H   0  0  0  0  0  0  0  0  0  0  0  0
   -1.0187   -1.7813   -1.8203 H   0  0  0  0  0  0  0  0  0  0  0  0
    0.6830   -2.6870   -2.9292 H   0  0  0  0  0  0  0  0  0  0  0  0
    3.8085   -1.3478    0.8292 H   0  0  0  0  0  0  0  0  0  0  0  0
    5.0916   -1.6804   -0.3189 H   0  0  0  0  0  0  0  0  0  0  0  0
    5.6009    0.6034   -0.7174 H   0  0  0  0  0  0  0  0  0  0  0  0
    5.4378    0.4605    1.0252 H   0  0  0  0  0  0  0  0  0  0  0  0
    3.6387    1.6768   -0.9290 H   0  0  0  0  0  0  0  0  0  0  0  0
    2.1926    2.1614    0.9824 H   0  0  0  0  0  0  0  0  0  0  0  0
    2.9137    0.7692    1.7683 H   0  0  0  0  0  0  0  0  0  0  0  0
    0.0255    1.2718    1.0075 H   0  0  0  0  0  0  0  0  0  0  0  0
  1  2  1  0
  2  3  2  0
  3  4  1  0
  4  5  2  0
  5  6  1  0
  5  7  1  0
  7  8  2  0
  7  9  1  0
  9 10  2  0
 10 11  1  0
 11 12  1  0
 11 13  2  0
 13 14  1  0
 14 15  1  0
 15 16  1  0
 16 17  1  0
 17 18  1  0
 18 19  1  0
 19 20  2  0
  8  2  1  0
 20  9  1  0
 19 13  1  0
  1 21  1  0
  1 22  1  0
  1 23  1  0
  3 24  1  0
  6 25  1  0
  6 26  1  0
  6 27  1  0
 10 28  1  0
 12 29  1  0
 15 30  1  0
 15 31  1  0
 16 32  1  0
 16 33  1  0
 17 34  1  0
 18 35  1  0
 18 36  1  0
 20 37  1  0
M  END
>  <Unnamed: 0>  (118) 
806

>  <ID>  (118) 
TRAIN_0806

>  <Canonical_Smiles>  (118) 
Cc1cnc(C)c(n1)c2cc(O)c3OCCNCc3c2

>  <Inhibition>  (118) 
13.990632

>  <TDC_conf_true_inhibitor>  (118) 
0

>  <TDC_conf_non_inhibitor>  (118) 
1

>  <split>  (118) 
1

$$$$
118
     RDKit          3D

 41 43  0  0  0  0  0  0  0  0999 V2000
    1.4589   -0.9314   -1.7475 O   0  0  0  0  0  0  0  0  0  0  0  0
    2.0138    0.1568   -1.8655 C   0  0  0  0  0  0  0  0  0  0  0  0
    3.4641    0.2334   -2.3291 C   0  0  0  0  0  0  0  0  0  0  0  0
    4.4410    1.4253   -1.3412 S   0  0  0  0  0  0  0  0  0  0  0  0
    4.5958    0.4600    0.2026 C   0  0  0  0  0  0  0  0  0  0  0  0
    5.6333   -0.6072    0.0784 C   0  0  0  0  0  0  0  0  0  0  0  0
    7.0016   -0.4499    0.2193 C   0  0  0  0  0  0  0  0  0  0  0  0
    7.7991   -1.9503   -0.0078 S   0  0  0  0  0  0  0  0  0  0  0  0
    6.2783   -2.6944   -0.2705 C   0  0  0  0  0  0  0  0  0  0  0  0
    5.2294   -1.9054   -0.2011 N   0  0  0  0  0  0  0  0  0  0  0  0
    1.4523    1.4073   -1.6791 N   0  0  0  0  0  0  0  0  0  0  0  0
    0.1521    1.6581   -1.3052 C   0  0  0  0  0  0  0  0  0  0  0  0
   -0.3596    2.9581   -1.0667 C   0  0  0  0  0  0  0  0  0  0  0  0
   -1.6784    2.7761   -0.7206 C   0  0  0  0  0  0  0  0  0  0  0  0
   -1.8843    1.4302   -0.7682 N   0  0  0  0  0  0  0  0  0  0  0  0
   -3.1181    0.7212   -0.4885 C   0  0  0  0  0  0  0  0  0  0  0  0
   -3.0586   -0.0110    0.8495 C   0  0  0  0  0  0  0  0  0  0  0  0
   -4.3480   -0.7349    1.1415 C   0  0  0  0  0  0  0  0  0  0  0  0
   -4.5692   -2.0203    0.6400 C   0  0  0  0  0  0  0  0  0  0  0  0
   -5.7781   -2.6411    0.9135 C   0  0  0  0  0  0  0  0  0  0  0  0
   -6.7670   -2.0744    1.6373 N   0  0  0  0  0  0  0  0  0  0  0  0
   -6.5330   -0.8331    2.1128 C   0  0  0  0  0  0  0  0  0  0  0  0
   -5.3580   -0.1300    1.8932 C   0  0  0  0  0  0  0  0  0  0  0  0
   -0.7927    0.7380   -1.1220 N   0  0  0  0  0  0  0  0  0  0  0  0
    3.4665    0.5657   -3.3725 H   0  0  0  0  0  0  0  0  0  0  0  0
    3.9214   -0.7585   -2.2940 H   0  0  0  0  0  0  0  0  0  0  0  0
    3.6262    0.0369    0.4833 H   0  0  0  0  0  0  0  0  0  0  0  0
    4.8822    1.1548    0.9998 H   0  0  0  0  0  0  0  0  0  0  0  0
    7.5555    0.4533    0.4329 H   0  0  0  0  0  0  0  0  0  0  0  0
    6.1921   -3.7526   -0.4806 H   0  0  0  0  0  0  0  0  0  0  0  0
    2.0629    2.2093   -1.7603 H   0  0  0  0  0  0  0  0  0  0  0  0
    0.1614    3.9017   -1.1373 H   0  0  0  0  0  0  0  0  0  0  0  0
   -2.4614    3.4720   -0.4549 H   0  0  0  0  0  0  0  0  0  0  0  0
   -3.2880    0.0278   -1.3211 H   0  0  0  0  0  0  0  0  0  0  0  0
   -3.9337    1.4541   -0.5005 H   0  0  0  0  0  0  0  0  0  0  0  0
   -2.2300   -0.7312    0.8612 H   0  0  0  0  0  0  0  0  0  0  0  0
   -2.8421    0.6969    1.6604 H   0  0  0  0  0  0  0  0  0  0  0  0
   -3.8169   -2.5343    0.0493 H   0  0  0  0  0  0  0  0  0  0  0  0
   -5.9884   -3.6411    0.5449 H   0  0  0  0  0  0  0  0  0  0  0  0
   -7.3424   -0.4017    2.6948 H   0  0  0  0  0  0  0  0  0  0  0  0
   -5.2398    0.8660    2.3063 H   0  0  0  0  0  0  0  0  0  0  0  0
  1  2  2  0
  2  3  1  0
  3  4  1  0
  4  5  1  0
  5  6  1  0
  6  7  2  0
  7  8  1  0
  8  9  1  0
  9 10  2  0
  2 11  1  0
 11 12  1  0
 12 13  1  0
 13 14  2  0
 14 15  1  0
 15 16  1  0
 16 17  1  0
 17 18  1  0
 18 19  2  0
 19 20  1  0
 20 21  2  0
 21 22  1  0
 22 23  2  0
 15 24  1  0
 10  6  1  0
 24 12  2  0
 23 18  1  0
  3 25  1  0
  3 26  1  0
  5 27  1  0
  5 28  1  0
  7 29  1  0
  9 30  1  0
 11 31  1  0
 13 32  1  0
 14 33  1  0
 16 34  1  0
 16 35  1  0
 17 36  1  0
 17 37  1  0
 19 38  1  0
 20 39  1  0
 22 40  1  0
 23 41  1  0
M  END
>  <Unnamed: 0>  (119) 
845

>  <ID>  (119) 
TRAIN_0845

>  <Canonical_Smiles>  (119) 
O=C(CSCc1cscn1)Nc2ccn(CCc3ccncc3)n2

>  <Inhibition>  (119) 
53.930355

>  <TDC_conf_true_inhibitor>  (119) 
1

>  <TDC_conf_non_inhibitor>  (119) 
0

>  <split>  (119) 
1

$$$$
119
     RDKit          3D

 39 41  0  0  0  0  0  0  0  0999 V2000
    4.9467    0.3302   -1.9171 C   0  0  0  0  0  0  0  0  0  0  0  0
    5.0195   -0.4951   -0.7155 N   0  0  0  0  0  0  0  0  0  0  0  0
    6.0342    0.0055    0.2082 C   0  0  0  0  0  0  0  0  0  0  0  0
    3.7071   -0.6815   -0.0655 C   0  0  0  0  0  0  0  0  0  0  0  0
    3.0037    0.5731    0.4677 C   0  0  0  0  0  0  0  0  0  0  0  0
    1.7184    0.2464    1.0610 N   0  0  0  0  0  0  0  0  0  0  0  0
    0.5015    0.2992    0.4452 C   0  0  0  0  0  0  0  0  0  0  0  0
   -0.4157   -0.1064    1.3814 C   0  0  0  0  0  0  0  0  0  0  0  0
   -1.7596   -0.2134    1.2559 N   0  0  0  0  0  0  0  0  0  0  0  0
   -2.5249   -0.3618    0.0664 C   0  0  0  0  0  0  0  0  0  0  0  0
   -1.9104   -0.7649   -1.0616 N   0  0  0  0  0  0  0  0  0  0  0  0
   -2.6725   -0.9120   -2.1477 C   0  0  0  0  0  0  0  0  0  0  0  0
   -3.9880   -0.6880   -2.2260 N   0  0  0  0  0  0  0  0  0  0  0  0
   -4.5901   -0.2637   -1.1142 C   0  0  0  0  0  0  0  0  0  0  0  0
   -5.9559   -0.0039   -1.1629 C   0  0  0  0  0  0  0  0  0  0  0  0
   -6.6590    0.4554   -0.0473 C   0  0  0  0  0  0  0  0  0  0  0  0
   -5.9783    0.6635    1.1387 C   0  0  0  0  0  0  0  0  0  0  0  0
   -6.6372    1.1128    2.2135 F   0  0  0  0  0  0  0  0  0  0  0  0
   -4.6160    0.4125    1.2247 C   0  0  0  0  0  0  0  0  0  0  0  0
   -3.9037   -0.0664    0.0957 C   0  0  0  0  0  0  0  0  0  0  0  0
    0.3462   -0.3492    2.5437 C   0  0  0  0  0  0  0  0  0  0  0  0
    1.6519   -0.1342    2.3532 N   0  0  0  0  0  0  0  0  0  0  0  0
    5.9058    0.3156   -2.4468 H   0  0  0  0  0  0  0  0  0  0  0  0
    4.6989    1.3740   -1.6967 H   0  0  0  0  0  0  0  0  0  0  0  0
    4.1988   -0.0643   -2.6137 H   0  0  0  0  0  0  0  0  0  0  0  0
    6.1045   -0.6369    1.0929 H   0  0  0  0  0  0  0  0  0  0  0  0
    7.0213   -0.0089   -0.2674 H   0  0  0  0  0  0  0  0  0  0  0  0
    5.8333    1.0302    0.5385 H   0  0  0  0  0  0  0  0  0  0  0  0
    3.8294   -1.4033    0.7536 H   0  0  0  0  0  0  0  0  0  0  0  0
    3.0437   -1.1878   -0.7801 H   0  0  0  0  0  0  0  0  0  0  0  0
    3.5961    1.0741    1.2411 H   0  0  0  0  0  0  0  0  0  0  0  0
    2.8118    1.2965   -0.3319 H   0  0  0  0  0  0  0  0  0  0  0  0
    0.3947    0.6024   -0.5862 H   0  0  0  0  0  0  0  0  0  0  0  0
   -2.2588   -0.6352    2.0325 H   0  0  0  0  0  0  0  0  0  0  0  0
   -2.1769   -1.2472   -3.0523 H   0  0  0  0  0  0  0  0  0  0  0  0
   -6.4879   -0.1603   -2.0995 H   0  0  0  0  0  0  0  0  0  0  0  0
   -7.7242    0.6549   -0.1054 H   0  0  0  0  0  0  0  0  0  0  0  0
   -4.1185    0.6102    2.1690 H   0  0  0  0  0  0  0  0  0  0  0  0
    0.0100   -0.6721    3.5195 H   0  0  0  0  0  0  0  0  0  0  0  0
  1  2  1  0
  2  3  1  0
  2  4  1  0
  4  5  1  0
  5  6  1  0
  6  7  1  0
  7  8  2  0
  8  9  1  0
  9 10  1  0
 10 11  2  0
 11 12  1  0
 12 13  2  0
 13 14  1  0
 14 15  2  0
 15 16  1  0
 16 17  2  0
 17 18  1  0
 17 19  1  0
 19 20  2  0
  8 21  1  0
 21 22  2  0
 22  6  1  0
 20 10  1  0
 20 14  1  0
  1 23  1  0
  1 24  1  0
  1 25  1  0
  3 26  1  0
  3 27  1  0
  3 28  1  0
  4 29  1  0
  4 30  1  0
  5 31  1  0
  5 32  1  0
  7 33  1  0
  9 34  1  0
 12 35  1  0
 15 36  1  0
 16 37  1  0
 19 38  1  0
 21 39  1  0
M  END
>  <Unnamed: 0>  (120) 
853

>  <ID>  (120) 
TRAIN_0853

>  <Canonical_Smiles>  (120) 
CN(C)CCn1cc(Nc2ncnc3ccc(F)cc23)cn1

>  <Inhibition>  (120) 
39.870055

>  <TDC_conf_true_inhibitor>  (120) 
0

>  <TDC_conf_non_inhibitor>  (120) 
1

>  <split>  (120) 
1

$$$$
120
     RDKit          3D

 31 34  0  0  0  0  0  0  0  0999 V2000
   -0.1853    4.1433   -0.7448 Cl  0  0  0  0  0  0  0  0  0  0  0  0
   -0.4028    2.4403   -0.5169 C   0  0  0  0  0  0  0  0  0  0  0  0
   -1.4308    1.8101   -1.1113 C   0  0  0  0  0  0  0  0  0  0  0  0
   -1.7584    0.3921   -1.0377 C   0  0  0  0  0  0  0  0  0  0  0  0
   -2.0472   -0.2067    0.1392 C   0  0  0  0  0  0  0  0  0  0  0  0
   -2.3827   -1.6212    0.1743 C   0  0  0  0  0  0  0  0  0  0  0  0
   -2.4311   -2.3610   -0.9480 C   0  0  0  0  0  0  0  0  0  0  0  0
   -2.1462   -1.7566   -2.2025 C   0  0  0  0  0  0  0  0  0  0  0  0
   -2.1306   -2.2613   -3.4186 N   0  0  0  0  0  0  0  0  0  0  0  0
   -1.7811   -1.2223   -4.2388 C   0  0  0  0  0  0  0  0  0  0  0  0
   -1.5819   -0.0684   -3.5184 C   0  0  0  0  0  0  0  0  0  0  0  0
   -1.8196   -0.4008   -2.2031 N   0  0  0  0  0  0  0  0  0  0  0  0
    0.5460    1.7760    0.3104 C   0  0  0  0  0  0  0  0  0  0  0  0
    0.4489    1.5882    1.6126 N   0  0  0  0  0  0  0  0  0  0  0  0
    1.5463    0.8902    2.0869 C   0  0  0  0  0  0  0  0  0  0  0  0
    1.7691    0.5147    3.4272 C   0  0  0  0  0  0  0  0  0  0  0  0
    2.9250   -0.1950    3.7682 C   0  0  0  0  0  0  0  0  0  0  0  0
    3.8571   -0.5331    2.7923 C   0  0  0  0  0  0  0  0  0  0  0  0
    3.6593   -0.1712    1.4562 C   0  0  0  0  0  0  0  0  0  0  0  0
    2.4947    0.5417    1.1258 C   0  0  0  0  0  0  0  0  0  0  0  0
    1.9768    1.1212   -0.4076 S   0  0  0  0  0  0  0  0  0  0  0  0
   -2.0979    2.3883   -1.7501 H   0  0  0  0  0  0  0  0  0  0  0  0
   -2.0405    0.3287    1.0854 H   0  0  0  0  0  0  0  0  0  0  0  0
   -2.5941   -2.0672    1.1418 H   0  0  0  0  0  0  0  0  0  0  0  0
   -2.6808   -3.4156   -0.9261 H   0  0  0  0  0  0  0  0  0  0  0  0
   -1.6887   -1.3598   -5.3086 H   0  0  0  0  0  0  0  0  0  0  0  0
   -1.2971    0.9277   -3.8218 H   0  0  0  0  0  0  0  0  0  0  0  0
    1.0398    0.7813    4.1858 H   0  0  0  0  0  0  0  0  0  0  0  0
    3.0937   -0.4825    4.8035 H   0  0  0  0  0  0  0  0  0  0  0  0
    4.7525   -1.0855    3.0705 H   0  0  0  0  0  0  0  0  0  0  0  0
    4.3879   -0.4354    0.6957 H   0  0  0  0  0  0  0  0  0  0  0  0
  1  2  1  0
  2  3  2  0
  3  4  1  0
  4  5  2  0
  5  6  1  0
  6  7  2  0
  7  8  1  0
  8  9  2  0
  9 10  1  0
 10 11  2  0
 11 12  1  0
  2 13  1  0
 13 14  2  0
 14 15  1  0
 15 16  2  0
 16 17  1  0
 17 18  2  0
 18 19  1  0
 19 20  2  0
 20 21  1  0
 12  4  1  0
 12  8  1  0
 21 13  1  0
 20 15  1  0
  3 22  1  0
  5 23  1  0
  6 24  1  0
  7 25  1  0
 10 26  1  0
 11 27  1  0
 16 28  1  0
 17 29  1  0
 18 30  1  0
 19 31  1  0
M  END
>  <Unnamed: 0>  (121) 
855

>  <ID>  (121) 
TRAIN_0855

>  <Canonical_Smiles>  (121) 
Cl\C(=C\c1cccc2nccn12)\c3nc4ccccc4s3

>  <Inhibition>  (121) 
91.342338

>  <TDC_conf_true_inhibitor>  (121) 
1

>  <TDC_conf_non_inhibitor>  (121) 
0

>  <split>  (121) 
1

$$$$
121
     RDKit          3D

 35 37  0  0  0  0  0  0  0  0999 V2000
    5.0275   -1.4640    0.8139 C   0  0  0  0  0  0  0  0  0  0  0  0
    4.7322   -0.2212    0.0799 C   0  0  0  0  0  0  0  0  0  0  0  0
    5.7508    0.3318   -0.6500 O   0  0  0  0  0  0  0  0  0  0  0  0
    5.1915    1.4417   -1.2047 C   0  0  0  0  0  0  0  0  0  0  0  0
    3.9313    1.6464   -0.8999 N   0  0  0  0  0  0  0  0  0  0  0  0
    3.6219    0.5833   -0.0747 C   0  0  0  0  0  0  0  0  0  0  0  0
    2.2872    0.4195    0.5029 C   0  0  0  0  0  0  0  0  0  0  0  0
    1.9422   -0.5738    1.3367 N   0  0  0  0  0  0  0  0  0  0  0  0
    0.5967   -0.3143    1.6056 O   0  0  0  0  0  0  0  0  0  0  0  0
    0.2725    0.8119    0.9047 C   0  0  0  0  0  0  0  0  0  0  0  0
   -1.1214    1.3035    1.0304 C   0  0  0  0  0  0  0  0  0  0  0  0
   -2.0693    0.5575    0.1488 C   0  0  0  0  0  0  0  0  0  0  0  0
   -2.2545    0.7358   -1.2515 C   0  0  0  0  0  0  0  0  0  0  0  0
   -1.5477    1.6754   -2.1594 C   0  0  0  0  0  0  0  0  0  0  0  0
   -3.1882   -0.0875   -1.7362 N   0  0  0  0  0  0  0  0  0  0  0  0
   -3.5994   -0.7924   -0.6712 N   0  0  0  0  0  0  0  0  0  0  0  0
   -4.6207   -1.7987   -0.8480 C   0  0  0  0  0  0  0  0  0  0  0  0
   -2.9528   -0.4561    0.4909 C   0  0  0  0  0  0  0  0  0  0  0  0
   -3.2307   -1.1216    1.7891 C   0  0  0  0  0  0  0  0  0  0  0  0
    1.2783    1.3088    0.2211 N   0  0  0  0  0  0  0  0  0  0  0  0
    4.3692   -2.2726    0.4818 H   0  0  0  0  0  0  0  0  0  0  0  0
    4.8842   -1.3189    1.8890 H   0  0  0  0  0  0  0  0  0  0  0  0
    6.0616   -1.7846    0.6526 H   0  0  0  0  0  0  0  0  0  0  0  0
    5.8318    2.0418   -1.8358 H   0  0  0  0  0  0  0  0  0  0  0  0
   -1.1508    2.3698    0.7754 H   0  0  0  0  0  0  0  0  0  0  0  0
   -1.4400    1.2364    2.0771 H   0  0  0  0  0  0  0  0  0  0  0  0
   -2.0323    1.7267   -3.1399 H   0  0  0  0  0  0  0  0  0  0  0  0
   -1.5383    2.6855   -1.7381 H   0  0  0  0  0  0  0  0  0  0  0  0
   -0.5128    1.3519   -2.3088 H   0  0  0  0  0  0  0  0  0  0  0  0
   -4.1421   -2.7800   -0.8069 H   0  0  0  0  0  0  0  0  0  0  0  0
   -5.3602   -1.6947   -0.0504 H   0  0  0  0  0  0  0  0  0  0  0  0
   -5.1075   -1.6577   -1.8167 H   0  0  0  0  0  0  0  0  0  0  0  0
   -2.4744   -0.8672    2.5377 H   0  0  0  0  0  0  0  0  0  0  0  0
   -4.2068   -0.8116    2.1753 H   0  0  0  0  0  0  0  0  0  0  0  0
   -3.2291   -2.2109    1.6792 H   0  0  0  0  0  0  0  0  0  0  0  0
  1  2  1  0
  2  3  1  0
  3  4  1  0
  4  5  2  0
  5  6  1  0
  6  7  1  0
  7  8  2  0
  8  9  1  0
  9 10  1  0
 10 11  1  0
 11 12  1  0
 12 13  1  0
 13 14  1  0
 13 15  2  0
 15 16  1  0
 16 17  1  0
 16 18  1  0
 18 19  1  0
 10 20  2  0
  6  2  2  0
 20  7  1  0
 18 12  2  0
  1 21  1  0
  1 22  1  0
  1 23  1  0
  4 24  1  0
 11 25  1  0
 11 26  1  0
 14 27  1  0
 14 28  1  0
 14 29  1  0
 17 30  1  0
 17 31  1  0
 17 32  1  0
 19 33  1  0
 19 34  1  0
 19 35  1  0
M  END
>  <Unnamed: 0>  (122) 
865

>  <ID>  (122) 
TRAIN_0865

>  <Canonical_Smiles>  (122) 
Cc1ocnc1c2noc(Cc3c(C)nn(C)c3C)n2

>  <Inhibition>  (122) 
9.905902

>  <TDC_conf_true_inhibitor>  (122) 
0

>  <TDC_conf_non_inhibitor>  (122) 
1

>  <split>  (122) 
1

$$$$
122
     RDKit          3D

 48 50  0  0  0  0  0  0  0  0999 V2000
   -2.4000   -2.9721   -3.3061 C   0  0  0  0  0  0  0  0  0  0  0  0
   -2.1312   -3.0699   -1.9126 O   0  0  0  0  0  0  0  0  0  0  0  0
   -2.5256   -2.0154   -1.1350 C   0  0  0  0  0  0  0  0  0  0  0  0
   -2.2695   -2.1695    0.2297 C   0  0  0  0  0  0  0  0  0  0  0  0
   -2.6065   -1.1657    1.1508 C   0  0  0  0  0  0  0  0  0  0  0  0
   -2.3246   -1.3809    2.6219 C   0  0  0  0  0  0  0  0  0  0  0  0
   -1.7468   -0.1826    3.3876 C   0  0  0  0  0  0  0  0  0  0  0  0
   -0.4711    0.3609    2.8278 C   0  0  0  0  0  0  0  0  0  0  0  0
    0.6462   -0.3479    2.3175 C   0  0  0  0  0  0  0  0  0  0  0  0
    1.5357    0.6203    1.9224 C   0  0  0  0  0  0  0  0  0  0  0  0
    2.7784    0.4904    1.3386 N   0  0  0  0  0  0  0  0  0  0  0  0
    3.5277    1.5911    0.9542 C   0  0  0  0  0  0  0  0  0  0  0  0
    3.1729    2.7642    1.0834 O   0  0  0  0  0  0  0  0  0  0  0  0
    4.8609    1.2229    0.3221 C   0  0  0  0  0  0  0  0  0  0  0  0
    4.6555    0.7662   -1.0840 C   0  0  0  0  0  0  0  0  0  0  0  0
    4.9482   -0.4381   -1.6957 C   0  0  0  0  0  0  0  0  0  0  0  0
    4.5368   -0.3437   -3.0469 C   0  0  0  0  0  0  0  0  0  0  0  0
    4.0187    0.9182   -3.2293 C   0  0  0  0  0  0  0  0  0  0  0  0
    4.1014    1.5907   -2.0381 N   0  0  0  0  0  0  0  0  0  0  0  0
    0.9374    1.8165    2.2197 N   0  0  0  0  0  0  0  0  0  0  0  0
   -0.2777    1.6867    2.7830 N   0  0  0  0  0  0  0  0  0  0  0  0
   -3.2344   -0.0031    0.6791 C   0  0  0  0  0  0  0  0  0  0  0  0
   -3.4888    0.1642   -0.6843 C   0  0  0  0  0  0  0  0  0  0  0  0
   -4.0832    1.2560   -1.2593 O   0  0  0  0  0  0  0  0  0  0  0  0
   -4.3170    2.3766   -0.4142 C   0  0  0  0  0  0  0  0  0  0  0  0
   -3.1351   -0.8453   -1.5856 C   0  0  0  0  0  0  0  0  0  0  0  0
   -2.0488   -3.8944   -3.7792 H   0  0  0  0  0  0  0  0  0  0  0  0
   -1.8514   -2.1375   -3.7558 H   0  0  0  0  0  0  0  0  0  0  0  0
   -3.4753   -2.8898   -3.4972 H   0  0  0  0  0  0  0  0  0  0  0  0
   -1.7955   -3.0886    0.5696 H   0  0  0  0  0  0  0  0  0  0  0  0
   -3.2647   -1.6850    3.0995 H   0  0  0  0  0  0  0  0  0  0  0  0
   -1.6374   -2.2294    2.7380 H   0  0  0  0  0  0  0  0  0  0  0  0
   -1.5602   -0.4904    4.4247 H   0  0  0  0  0  0  0  0  0  0  0  0
   -2.4968    0.6172    3.4422 H   0  0  0  0  0  0  0  0  0  0  0  0
    0.7674   -1.4178    2.2365 H   0  0  0  0  0  0  0  0  0  0  0  0
    3.1028   -0.4403    1.0996 H   0  0  0  0  0  0  0  0  0  0  0  0
    5.3422    0.4434    0.9235 H   0  0  0  0  0  0  0  0  0  0  0  0
    5.5158    2.1003    0.3472 H   0  0  0  0  0  0  0  0  0  0  0  0
    5.4083   -1.2963   -1.2227 H   0  0  0  0  0  0  0  0  0  0  0  0
    4.6138   -1.1119   -3.8058 H   0  0  0  0  0  0  0  0  0  0  0  0
    3.6019    1.3983   -4.1041 H   0  0  0  0  0  0  0  0  0  0  0  0
    3.7850    2.5415   -1.8803 H   0  0  0  0  0  0  0  0  0  0  0  0
    1.3178    2.7438    2.0448 H   0  0  0  0  0  0  0  0  0  0  0  0
   -3.5157    0.7659    1.3906 H   0  0  0  0  0  0  0  0  0  0  0  0
   -3.3859    2.7388    0.0342 H   0  0  0  0  0  0  0  0  0  0  0  0
   -5.0611    2.1407    0.3532 H   0  0  0  0  0  0  0  0  0  0  0  0
   -4.7229    3.1817   -1.0333 H   0  0  0  0  0  0  0  0  0  0  0  0
   -3.3474   -0.6808   -2.6369 H   0  0  0  0  0  0  0  0  0  0  0  0
  1  2  1  0
  2  3  1  0
  3  4  2  0
  4  5  1  0
  5  6  1  0
  6  7  1  0
  7  8  1  0
  8  9  1  0
  9 10  2  0
 10 11  1  0
 11 12  1  0
 12 13  2  0
 12 14  1  0
 14 15  1  0
 15 16  2  0
 16 17  1  0
 17 18  2  0
 18 19  1  0
 10 20  1  0
 20 21  1  0
  5 22  2  0
 22 23  1  0
 23 24  1  0
 24 25  1  0
 23 26  2  0
 26  3  1  0
 21  8  2  0
 19 15  1  0
  1 27  1  0
  1 28  1  0
  1 29  1  0
  4 30  1  0
  6 31  1  0
  6 32  1  0
  7 33  1  0
  7 34  1  0
  9 35  1  0
 11 36  1  0
 14 37  1  0
 14 38  1  0
 16 39  1  0
 17 40  1  0
 18 41  1  0
 19 42  1  0
 20 43  1  0
 22 44  1  0
 25 45  1  0
 25 46  1  0
 25 47  1  0
 26 48  1  0
M  END
>  <Unnamed: 0>  (123) 
873

>  <ID>  (123) 
TRAIN_0873

>  <Canonical_Smiles>  (123) 
COc1cc(CCc2cc(NC(=O)Cc3ccc[nH]3)[nH]n2)cc(OC)c1

>  <Inhibition>  (123) 
71.012034

>  <TDC_conf_true_inhibitor>  (123) 
1

>  <TDC_conf_non_inhibitor>  (123) 
0

>  <split>  (123) 
1

$$$$
123
     RDKit          3D

 45 46  0  0  0  0  0  0  0  0999 V2000
   -5.7955   -1.4538    0.7833 C   0  0  0  0  0  0  0  0  0  0  0  0
   -4.8997   -0.8385   -0.1682 N   0  0  0  0  0  0  0  0  0  0  0  0
   -3.9572   -1.5122   -0.9008 C   0  0  0  0  0  0  0  0  0  0  0  0
   -3.7236   -2.7092   -0.8932 O   0  0  0  0  0  0  0  0  0  0  0  0
   -3.2885   -0.5279   -1.6297 N   0  0  0  0  0  0  0  0  0  0  0  0
   -2.0949   -0.7396   -2.4247 C   0  0  0  0  0  0  0  0  0  0  0  0
   -0.8252   -0.6290   -1.5745 C   0  0  0  0  0  0  0  0  0  0  0  0
   -0.6652    0.7644   -1.1069 N   0  0  0  0  0  0  0  0  0  0  0  0
    0.5792    1.1111   -0.0352 S   0  0  0  0  0  6  0  0  0  0  0  0
    0.8713   -0.0950    0.7077 O   0  0  0  0  0  0  0  0  0  0  0  0
    0.1903    2.3409    0.6149 O   0  0  0  0  0  0  0  0  0  0  0  0
    1.9145    1.4576   -1.1601 C   0  0  0  0  0  0  0  0  0  0  0  0
    3.1950    1.8244   -0.4192 C   0  0  0  0  0  0  0  0  0  0  0  0
    3.7791    0.7274    0.3601 N   0  0  0  0  0  0  0  0  0  0  0  0
    3.7983    0.8612    1.7504 C   0  0  0  0  0  0  0  0  0  0  0  0
    3.4000    1.8666    2.3379 O   0  0  0  0  0  0  0  0  0  0  0  0
    4.3069   -0.3213    2.5387 C   0  0  0  0  0  0  0  0  0  0  0  0
    5.4059   -1.0392    1.7891 C   0  0  0  0  0  0  0  0  0  0  0  0
    4.8596   -1.5012    0.4564 C   0  0  0  0  0  0  0  0  0  0  0  0
    4.3163   -0.3460   -0.3497 C   0  0  0  0  0  0  0  0  0  0  0  0
    4.3084   -0.4028   -1.5812 O   0  0  0  0  0  0  0  0  0  0  0  0
   -3.7347    0.7233   -1.2656 N   0  0  0  0  0  0  0  0  0  0  0  0
   -4.6973    0.4812   -0.4101 C   0  0  0  0  0  0  0  0  0  0  0  0
   -5.5383    1.5434    0.2731 C   0  0  0  0  0  0  0  0  0  0  0  0
   -5.1226    2.8122    0.0232 F   0  0  0  0  0  0  0  0  0  0  0  0
   -6.8424    1.4751   -0.1126 F   0  0  0  0  0  0  0  0  0  0  0  0
   -5.5410    1.3932    1.6275 F   0  0  0  0  0  0  0  0  0  0  0  0
   -6.7744   -0.9739    0.7303 H   0  0  0  0  0  0  0  0  0  0  0  0
   -5.3849   -1.3063    1.7859 H   0  0  0  0  0  0  0  0  0  0  0  0
   -5.8906   -2.5251    0.5851 H   0  0  0  0  0  0  0  0  0  0  0  0
   -2.0928   -0.0072   -3.2396 H   0  0  0  0  0  0  0  0  0  0  0  0
   -2.1502   -1.7434   -2.8602 H   0  0  0  0  0  0  0  0  0  0  0  0
   -0.9071   -1.3036   -0.7147 H   0  0  0  0  0  0  0  0  0  0  0  0
    0.0469   -0.9129   -2.1722 H   0  0  0  0  0  0  0  0  0  0  0  0
   -1.5443    1.2228   -0.8368 H   0  0  0  0  0  0  0  0  0  0  0  0
    2.0426    0.5784   -1.7955 H   0  0  0  0  0  0  0  0  0  0  0  0
    1.5964    2.2994   -1.7838 H   0  0  0  0  0  0  0  0  0  0  0  0
    3.9458    2.1258   -1.1610 H   0  0  0  0  0  0  0  0  0  0  0  0
    3.0172    2.7001    0.2143 H   0  0  0  0  0  0  0  0  0  0  0  0
    3.4625   -0.9873    2.7481 H   0  0  0  0  0  0  0  0  0  0  0  0
    4.6984    0.0416    3.4950 H   0  0  0  0  0  0  0  0  0  0  0  0
    5.7610   -1.8977    2.3695 H   0  0  0  0  0  0  0  0  0  0  0  0
    6.2590   -0.3664    1.6350 H   0  0  0  0  0  0  0  0  0  0  0  0
    5.6614   -1.9781   -0.1173 H   0  0  0  0  0  0  0  0  0  0  0  0
    4.0540   -2.2323    0.5907 H   0  0  0  0  0  0  0  0  0  0  0  0
  1  2  1  0
  2  3  1  0
  3  4  2  0
  3  5  1  0
  5  6  1  0
  6  7  1  0
  7  8  1  0
  8  9  1  0
  9 10  2  0
  9 11  2  0
  9 12  1  0
 12 13  1  0
 13 14  1  0
 14 15  1  0
 15 16  2  0
 15 17  1  0
 17 18  1  0
 18 19  1  0
 19 20  1  0
 20 21  2  0
  5 22  1  0
 22 23  2  0
 23 24  1  0
 24 25  1  0
 24 26  1  0
 24 27  1  0
 23  2  1  0
 20 14  1  0
  1 28  1  0
  1 29  1  0
  1 30  1  0
  6 31  1  0
  6 32  1  0
  7 33  1  0
  7 34  1  0
  8 35  1  0
 12 36  1  0
 12 37  1  0
 13 38  1  0
 13 39  1  0
 17 40  1  0
 17 41  1  0
 18 42  1  0
 18 43  1  0
 19 44  1  0
 19 45  1  0
M  END
>  <Unnamed: 0>  (124) 
898

>  <ID>  (124) 
TRAIN_0898

>  <Canonical_Smiles>  (124) 
CN1C(=O)N(CCNS(=O)(=O)CCN2C(=O)CCCC2=O)N=C1C(F)(F)F

>  <Inhibition>  (124) 
23.742158

>  <TDC_conf_true_inhibitor>  (124) 
0

>  <TDC_conf_non_inhibitor>  (124) 
1

>  <split>  (124) 
1

$$$$
124
     RDKit          3D

 50 53  0  0  0  0  0  0  0  0999 V2000
   -5.5002    3.2856    0.0173 C   0  0  0  0  0  0  0  0  0  0  0  0
   -4.1379    2.7170    0.2490 C   0  0  0  0  0  0  0  0  0  0  0  0
   -2.9988    3.5122    0.2302 C   0  0  0  0  0  0  0  0  0  0  0  0
   -1.7426    2.9324    0.4304 C   0  0  0  0  0  0  0  0  0  0  0  0
   -1.6305    1.5595    0.6500 C   0  0  0  0  0  0  0  0  0  0  0  0
   -2.7365    0.7800    0.6225 N   0  0  0  0  0  0  0  0  0  0  0  0
   -3.9451    1.3588    0.4326 C   0  0  0  0  0  0  0  0  0  0  0  0
   -0.3579    0.9193    0.8524 N   0  0  0  0  0  0  0  0  0  0  0  0
   -0.3287   -0.5688    0.8555 C   0  0  0  0  0  0  0  0  0  0  0  0
   -1.0799   -1.2101    2.0469 C   0  0  0  0  0  0  0  0  0  0  0  0
   -2.0713   -2.2899    1.6210 C   0  0  0  0  0  0  0  0  0  0  0  0
   -1.4524   -3.3190    0.6774 C   0  0  0  0  0  0  0  0  0  0  0  0
   -0.5927   -2.7134   -0.4358 C   0  0  0  0  0  0  0  0  0  0  0  0
   -0.6794   -1.1923   -0.5068 C   0  0  0  0  0  0  0  0  0  0  0  0
    0.7636    1.6694    1.2581 C   0  0  0  0  0  0  0  0  0  0  0  0
    0.7137    2.7807    1.7917 O   0  0  0  0  0  0  0  0  0  0  0  0
    2.1352    1.1033    1.0583 C   0  0  0  0  0  0  0  0  0  0  0  0
    3.1042    1.3380    2.0280 C   0  0  0  0  0  0  0  0  0  0  0  0
    4.3799    0.8235    1.8276 C   0  0  0  0  0  0  0  0  0  0  0  0
    4.6505    0.1069    0.6645 C   0  0  0  0  0  0  0  0  0  0  0  0
    3.6314   -0.0645   -0.2743 C   0  0  0  0  0  0  0  0  0  0  0  0
    2.3740    0.4278   -0.0982 N   0  0  0  0  0  0  0  0  0  0  0  0
    3.9126   -0.7925   -1.4683 N   0  0  0  0  0  0  0  0  0  0  0  0
    3.0454   -1.0015   -2.5218 C   0  0  0  0  0  0  0  0  0  0  0  0
    3.7054   -1.7818   -3.4408 C   0  0  0  0  0  0  0  0  0  0  0  0
    4.9716   -1.9946   -2.8755 C   0  0  0  0  0  0  0  0  0  0  0  0
    5.1168   -1.3899   -1.6943 N   0  0  0  0  0  0  0  0  0  0  0  0
   -5.7594    3.2219   -1.0432 H   0  0  0  0  0  0  0  0  0  0  0  0
   -5.5453    4.3348    0.3257 H   0  0  0  0  0  0  0  0  0  0  0  0
   -6.2524    2.7447    0.6006 H   0  0  0  0  0  0  0  0  0  0  0  0
   -3.0697    4.5837    0.0609 H   0  0  0  0  0  0  0  0  0  0  0  0
   -0.8749    3.5808    0.3868 H   0  0  0  0  0  0  0  0  0  0  0  0
   -4.7821    0.6647    0.4352 H   0  0  0  0  0  0  0  0  0  0  0  0
    0.7060   -0.8702    1.0442 H   0  0  0  0  0  0  0  0  0  0  0  0
   -1.5908   -0.4612    2.6622 H   0  0  0  0  0  0  0  0  0  0  0  0
   -0.3389   -1.6706    2.7147 H   0  0  0  0  0  0  0  0  0  0  0  0
   -2.9344   -1.8255    1.1274 H   0  0  0  0  0  0  0  0  0  0  0  0
   -2.4679   -2.7964    2.5089 H   0  0  0  0  0  0  0  0  0  0  0  0
   -0.8410   -4.0234    1.2541 H   0  0  0  0  0  0  0  0  0  0  0  0
   -2.2595   -3.9156    0.2323 H   0  0  0  0  0  0  0  0  0  0  0  0
    0.4552   -3.0032   -0.2745 H   0  0  0  0  0  0  0  0  0  0  0  0
   -0.8799   -3.1456   -1.4013 H   0  0  0  0  0  0  0  0  0  0  0  0
   -1.6803   -0.9074   -0.8454 H   0  0  0  0  0  0  0  0  0  0  0  0
    0.0117   -0.8224   -1.2719 H   0  0  0  0  0  0  0  0  0  0  0  0
    2.8688    1.9091    2.9213 H   0  0  0  0  0  0  0  0  0  0  0  0
    5.1607    0.9838    2.5670 H   0  0  0  0  0  0  0  0  0  0  0  0
    5.6468   -0.2961    0.5004 H   0  0  0  0  0  0  0  0  0  0  0  0
    2.0515   -0.5775   -2.5137 H   0  0  0  0  0  0  0  0  0  0  0  0
    3.3245   -2.1429   -4.3847 H   0  0  0  0  0  0  0  0  0  0  0  0
    5.8010   -2.5615   -3.2794 H   0  0  0  0  0  0  0  0  0  0  0  0
  1  2  1  0
  2  3  2  0
  3  4  1  0
  4  5  2  0
  5  6  1  0
  6  7  2  0
  5  8  1  0
  8  9  1  0
  9 10  1  0
 10 11  1  0
 11 12  1  0
 12 13  1  0
 13 14  1  0
  8 15  1  0
 15 16  2  0
 15 17  1  0
 17 18  2  0
 18 19  1  0
 19 20  2  0
 20 21  1  0
 21 22  2  0
 21 23  1  0
 23 24  1  0
 24 25  2  0
 25 26  1  0
 26 27  2  0
  7  2  1  0
 14  9  1  0
 22 17  1  0
 27 23  1  0
  1 28  1  0
  1 29  1  0
  1 30  1  0
  3 31  1  0
  4 32  1  0
  7 33  1  0
  9 34  1  0
 10 35  1  0
 10 36  1  0
 11 37  1  0
 11 38  1  0
 12 39  1  0
 12 40  1  0
 13 41  1  0
 13 42  1  0
 14 43  1  0
 14 44  1  0
 18 45  1  0
 19 46  1  0
 20 47  1  0
 24 48  1  0
 25 49  1  0
 26 50  1  0
M  END
>  <Unnamed: 0>  (125) 
900

>  <ID>  (125) 
TRAIN_0900

>  <Canonical_Smiles>  (125) 
Cc1ccc(nc1)N(C2CCCCC2)C(=O)c3cccc(n3)n4cccn4

>  <Inhibition>  (125) 
65.084496

>  <TDC_conf_true_inhibitor>  (125) 
1

>  <TDC_conf_non_inhibitor>  (125) 
0

>  <split>  (125) 
1

$$$$
125
     RDKit          3D

 29 30  0  0  0  0  0  0  0  0999 V2000
    0.1770   -0.6107    1.4854 C   0  0  0  0  0  0  0  0  0  0  0  0
   -0.3081   -0.0333    0.2321 N   0  0  0  0  0  0  0  0  0  0  0  0
    0.5793    0.4223   -0.7669 C   0  0  0  0  0  0  0  0  0  0  0  0
    0.2226    1.0581   -1.7559 O   0  0  0  0  0  0  0  0  0  0  0  0
    2.0023    0.1254   -0.6506 C   0  0  0  0  0  0  0  0  0  0  0  0
    2.7139   -0.9766   -0.1865 C   0  0  0  0  0  0  0  0  0  0  0  0
    4.0994   -0.7217   -0.3575 C   0  0  0  0  0  0  0  0  0  0  0  0
    5.3439   -1.7802    0.0942 Cl  0  0  0  0  0  0  0  0  0  0  0  0
    4.1951    0.5014   -0.9575 C   0  0  0  0  0  0  0  0  0  0  0  0
    5.5128    1.4367   -1.4760 Cl  0  0  0  0  0  0  0  0  0  0  0  0
    2.9473    0.9956   -1.1694 N   0  0  0  0  0  0  0  0  0  0  0  0
   -1.7103    0.0792    0.0441 C   0  0  0  0  0  0  0  0  0  0  0  0
   -2.4381    1.0637   -0.6046 C   0  0  0  0  0  0  0  0  0  0  0  0
   -2.1497    2.3494   -1.2740 C   0  0  0  0  0  0  0  0  0  0  0  0
   -3.7657    0.7797   -0.5187 O   0  0  0  0  0  0  0  0  0  0  0  0
   -3.9562   -0.3743    0.1993 N   0  0  0  0  0  0  0  0  0  0  0  0
   -2.7345   -0.7987    0.5377 C   0  0  0  0  0  0  0  0  0  0  0  0
   -2.6182   -2.0772    1.2803 C   0  0  0  0  0  0  0  0  0  0  0  0
    0.3047   -1.6892    1.3642 H   0  0  0  0  0  0  0  0  0  0  0  0
    1.1216   -0.1512    1.7878 H   0  0  0  0  0  0  0  0  0  0  0  0
   -0.5333   -0.4097    2.2936 H   0  0  0  0  0  0  0  0  0  0  0  0
    2.2921   -1.8868    0.2179 H   0  0  0  0  0  0  0  0  0  0  0  0
    2.7274    1.8643   -1.6410 H   0  0  0  0  0  0  0  0  0  0  0  0
   -1.9610    2.1985   -2.3407 H   0  0  0  0  0  0  0  0  0  0  0  0
   -1.2909    2.8514   -0.8188 H   0  0  0  0  0  0  0  0  0  0  0  0
   -3.0015    3.0325   -1.1843 H   0  0  0  0  0  0  0  0  0  0  0  0
   -3.5474   -2.6554    1.2297 H   0  0  0  0  0  0  0  0  0  0  0  0
   -1.8250   -2.7017    0.8583 H   0  0  0  0  0  0  0  0  0  0  0  0
   -2.3996   -1.8917    2.3361 H   0  0  0  0  0  0  0  0  0  0  0  0
  1  2  1  0
  2  3  1  0
  3  4  2  0
  3  5  1  0
  5  6  2  0
  6  7  1  0
  7  8  1  0
  7  9  2  0
  9 10  1  0
  9 11  1  0
  2 12  1  0
 12 13  2  0
 13 14  1  0
 13 15  1  0
 15 16  1  0
 16 17  2  0
 17 18  1  0
 11  5  1  0
 17 12  1  0
  1 19  1  0
  1 20  1  0
  1 21  1  0
  6 22  1  0
 11 23  1  0
 14 24  1  0
 14 25  1  0
 14 26  1  0
 18 27  1  0
 18 28  1  0
 18 29  1  0
M  END
>  <Unnamed: 0>  (126) 
901

>  <ID>  (126) 
TRAIN_0901

>  <Canonical_Smiles>  (126) 
CN(C(=O)c1cc(Cl)c(Cl)[nH]1)c2c(C)onc2C

>  <Inhibition>  (126) 
39.652413

>  <TDC_conf_true_inhibitor>  (126) 
0

>  <TDC_conf_non_inhibitor>  (126) 
1

>  <split>  (126) 
1

$$$$
126
     RDKit          3D

 54 56  0  0  0  0  0  0  0  0999 V2000
   -4.5342   -0.7849   -2.8587 C   0  0  0  0  0  0  0  0  0  0  0  0
   -3.3768    0.0200   -2.2584 C   0  0  0  0  0  0  0  0  0  0  0  0
   -2.1598    0.0604   -3.1893 C   0  0  0  0  0  0  0  0  0  0  0  0
   -3.8546    1.4597   -2.0145 C   0  0  0  0  0  0  0  0  0  0  0  0
   -3.0155   -0.4729   -0.9440 O   0  0  0  0  0  0  0  0  0  0  0  0
   -2.5277   -1.7264   -0.7788 C   0  0  0  0  0  0  0  0  0  0  0  0
   -2.3876   -2.5546   -1.6682 O   0  0  0  0  0  0  0  0  0  0  0  0
   -2.1785   -1.9602    0.5290 N   0  0  0  0  0  0  0  0  0  0  0  0
   -2.0081   -0.9520    1.5546 C   0  0  0  0  0  0  0  0  0  0  0  0
   -2.0942   -1.7831    2.8415 C   0  0  0  0  0  0  0  0  0  0  0  0
   -1.6837   -3.2002    2.4219 C   0  0  0  0  0  0  0  0  0  0  0  0
   -1.3698   -3.0888    0.9256 C   0  0  0  0  0  0  0  0  0  0  0  0
    0.1141   -2.7413    0.7040 C   0  0  0  0  0  0  0  0  0  0  0  0
    0.3944   -1.2216    0.6475 C   0  0  0  0  0  0  0  0  0  0  0  0
   -0.6124   -0.3228    1.4055 C   0  0  0  0  0  0  0  0  0  0  0  0
    1.7689   -0.9342    1.0490 N   0  0  0  0  0  0  0  0  0  0  0  0
    2.4126    0.2262    0.6523 C   0  0  0  0  0  0  0  0  0  0  0  0
    1.9091    1.0371   -0.1138 O   0  0  0  0  0  0  0  0  0  0  0  0
    3.8028    0.3474    1.2605 C   0  0  0  0  0  0  0  0  0  0  0  0
    4.5820    1.6305    0.9668 C   0  0  0  0  0  0  0  0  0  0  0  0
    4.8957    1.8642   -0.5199 C   0  0  0  0  0  0  0  0  0  0  0  0
    4.7983    3.3751   -0.7428 C   0  0  0  0  0  0  0  0  0  0  0  0
    4.0366    3.8538    0.4478 C   0  0  0  0  0  0  0  0  0  0  0  0
    3.9121    2.9053    1.3813 C   0  0  0  0  0  0  0  0  0  0  0  0
   -4.2332   -1.8041   -3.1182 H   0  0  0  0  0  0  0  0  0  0  0  0
   -5.3584   -0.8738   -2.1422 H   0  0  0  0  0  0  0  0  0  0  0  0
   -4.9154   -0.3142   -3.7714 H   0  0  0  0  0  0  0  0  0  0  0  0
   -1.3156    0.5629   -2.7037 H   0  0  0  0  0  0  0  0  0  0  0  0
   -2.3891    0.5863   -4.1224 H   0  0  0  0  0  0  0  0  0  0  0  0
   -1.8153   -0.9433   -3.4560 H   0  0  0  0  0  0  0  0  0  0  0  0
   -4.1583    1.9512   -2.9447 H   0  0  0  0  0  0  0  0  0  0  0  0
   -3.0637    2.0589   -1.5481 H   0  0  0  0  0  0  0  0  0  0  0  0
   -4.7036    1.4761   -1.3209 H   0  0  0  0  0  0  0  0  0  0  0  0
   -2.7874   -0.1841    1.5204 H   0  0  0  0  0  0  0  0  0  0  0  0
   -3.1294   -1.8051    3.2035 H   0  0  0  0  0  0  0  0  0  0  0  0
   -1.4754   -1.3938    3.6557 H   0  0  0  0  0  0  0  0  0  0  0  0
   -0.8512   -3.5876    3.0172 H   0  0  0  0  0  0  0  0  0  0  0  0
   -2.5340   -3.8763    2.5752 H   0  0  0  0  0  0  0  0  0  0  0  0
   -1.6396   -4.0016    0.3846 H   0  0  0  0  0  0  0  0  0  0  0  0
    0.4343   -3.1692   -0.2560 H   0  0  0  0  0  0  0  0  0  0  0  0
    0.7385   -3.2373    1.4575 H   0  0  0  0  0  0  0  0  0  0  0  0
    0.3228   -0.9345   -0.4118 H   0  0  0  0  0  0  0  0  0  0  0  0
   -0.7136    0.6128    0.8386 H   0  0  0  0  0  0  0  0  0  0  0  0
   -0.2193   -0.0225    2.3848 H   0  0  0  0  0  0  0  0  0  0  0  0
    2.1632   -1.4536    1.8224 H   0  0  0  0  0  0  0  0  0  0  0  0
    4.3893   -0.5113    0.9097 H   0  0  0  0  0  0  0  0  0  0  0  0
    3.6931    0.2462    2.3484 H   0  0  0  0  0  0  0  0  0  0  0  0
    5.5311    1.5690    1.5173 H   0  0  0  0  0  0  0  0  0  0  0  0
    5.8926    1.4899   -0.7794 H   0  0  0  0  0  0  0  0  0  0  0  0
    4.1904    1.3468   -1.1799 H   0  0  0  0  0  0  0  0  0  0  0  0
    5.7886    3.8407   -0.7736 H   0  0  0  0  0  0  0  0  0  0  0  0
    4.2725    3.6014   -1.6751 H   0  0  0  0  0  0  0  0  0  0  0  0
    3.6473    4.8585    0.5385 H   0  0  0  0  0  0  0  0  0  0  0  0
    3.4147    3.0481    2.3309 H   0  0  0  0  0  0  0  0  0  0  0  0
  1  2  1  0
  2  3  1  0
  2  4  1  0
  2  5  1  0
  5  6  1  0
  6  7  2  0
  6  8  1  0
  8  9  1  0
  9 10  1  0
 10 11  1  0
 11 12  1  0
 12 13  1  0
 13 14  1  0
 14 15  1  0
 14 16  1  0
 16 17  1  0
 17 18  2  0
 17 19  1  0
 19 20  1  0
 20 21  1  0
 21 22  1  0
 22 23  1  0
 23 24  2  0
 12  8  1  0
 15  9  1  0
 24 20  1  0
  1 25  1  0
  1 26  1  0
  1 27  1  0
  3 28  1  0
  3 29  1  0
  3 30  1  0
  4 31  1  0
  4 32  1  0
  4 33  1  0
  9 34  1  0
 10 35  1  0
 10 36  1  0
 11 37  1  0
 11 38  1  0
 12 39  1  0
 13 40  1  0
 13 41  1  0
 14 42  1  0
 15 43  1  0
 15 44  1  0
 16 45  1  0
 19 46  1  0
 19 47  1  0
 20 48  1  0
 21 49  1  0
 21 50  1  0
 22 51  1  0
 22 52  1  0
 23 53  1  0
 24 54  1  0
M  END
>  <Unnamed: 0>  (127) 
904

>  <ID>  (127) 
TRAIN_0904

>  <Canonical_Smiles>  (127) 
CC(C)(C)OC(=O)N1C2CCC1CC(C2)NC(=O)CC3CCC=C3

>  <Inhibition>  (127) 
45.480732

>  <TDC_conf_true_inhibitor>  (127) 
0

>  <TDC_conf_non_inhibitor>  (127) 
1

>  <split>  (127) 
1

$$$$
127
     RDKit          3D

 25 28  0  0  0  0  0  0  0  0999 V2000
   -2.5791    2.8798   -0.7639 Cl  0  0  0  0  0  0  0  0  0  0  0  0
   -2.6728    1.3002   -0.1103 C   0  0  0  0  0  0  0  0  0  0  0  0
   -1.6183    0.4066    0.0762 C   0  0  0  0  0  0  0  0  0  0  0  0
   -2.1751   -1.0959    0.7750 S   0  0  0  0  0  0  0  0  0  0  0  0
   -3.7439   -0.5328    0.8070 C   0  0  0  0  0  0  0  0  0  0  0  0
   -5.1886   -1.2013    1.3158 S   0  0  0  0  0  0  0  0  0  0  0  0
   -6.0320    0.2504    0.8688 C   0  0  0  0  0  0  0  0  0  0  0  0
   -5.1816    1.2122    0.3399 C   0  0  0  0  0  0  0  0  0  0  0  0
   -3.8710    0.7105    0.3259 C   0  0  0  0  0  0  0  0  0  0  0  0
   -0.2241    0.5857   -0.2266 C   0  0  0  0  0  0  0  0  0  0  0  0
    0.2977    1.7281   -0.7742 O   0  0  0  0  0  0  0  0  0  0  0  0
    1.6650    1.5320   -0.9210 N   0  0  0  0  0  0  0  0  0  0  0  0
    1.8656    0.2903   -0.4526 C   0  0  0  0  0  0  0  0  0  0  0  0
    0.7076   -0.3231   -0.0135 N   0  0  0  0  0  0  0  0  0  0  0  0
    3.1659   -0.3712   -0.4005 C   0  0  0  0  0  0  0  0  0  0  0  0
    3.2823   -1.6633    0.1021 C   0  0  0  0  0  0  0  0  0  0  0  0
    4.4662   -2.3273    0.1747 N   0  0  0  0  0  0  0  0  0  0  0  0
    5.5385   -1.6418   -0.2795 C   0  0  0  0  0  0  0  0  0  0  0  0
    5.4357   -0.3560   -0.7818 C   0  0  0  0  0  0  0  0  0  0  0  0
    4.2573    0.3051   -0.8540 N   0  0  0  0  0  0  0  0  0  0  0  0
   -7.1013    0.3150    1.0195 H   0  0  0  0  0  0  0  0  0  0  0  0
   -5.5111    2.1865    0.0008 H   0  0  0  0  0  0  0  0  0  0  0  0
    2.4215   -2.2150    0.4672 H   0  0  0  0  0  0  0  0  0  0  0  0
    6.4909   -2.1572   -0.2287 H   0  0  0  0  0  0  0  0  0  0  0  0
    6.3047    0.1826   -1.1429 H   0  0  0  0  0  0  0  0  0  0  0  0
  1  2  1  0
  2  3  2  0
  3  4  1  0
  4  5  1  0
  5  6  1  0
  6  7  1  0
  7  8  2  0
  8  9  1  0
  3 10  1  0
 10 11  1  0
 11 12  1  0
 12 13  2  0
 13 14  1  0
 13 15  1  0
 15 16  2  0
 16 17  1  0
 17 18  2  0
 18 19  1  0
 19 20  2  0
  9  2  1  0
  9  5  2  0
 14 10  2  0
 20 15  1  0
  7 21  1  0
  8 22  1  0
 16 23  1  0
 18 24  1  0
 19 25  1  0
M  END
>  <Unnamed: 0>  (128) 
906

>  <ID>  (128) 
TRAIN_0906

>  <Canonical_Smiles>  (128) 
Clc1c(sc2sccc12)c3onc(n3)c4cnccn4

>  <Inhibition>  (128) 
38.484189

>  <TDC_conf_true_inhibitor>  (128) 
1

>  <TDC_conf_non_inhibitor>  (128) 
0

>  <split>  (128) 
1

$$$$
128
     RDKit          3D

 38 39  0  0  0  0  0  0  0  0999 V2000
   -4.3555   -1.7518   -0.5650 C   0  0  0  0  0  0  0  0  0  0  0  0
   -3.5039   -0.6128   -0.2251 N   0  0  0  0  0  0  0  0  0  0  0  0
   -2.1875   -0.8379    0.1707 C   0  0  0  0  0  0  0  0  0  0  0  0
   -1.3958    0.2220    0.4443 C   0  0  0  0  0  0  0  0  0  0  0  0
    0.0325    0.0180    0.8423 C   0  0  0  0  0  0  0  0  0  0  0  0
    0.3485   -0.9479    1.5472 O   0  0  0  0  0  0  0  0  0  0  0  0
    1.0680    1.0280    0.3441 C   0  0  0  0  0  0  0  0  0  0  0  0
    2.2983    0.3338   -0.0423 N   0  0  0  0  0  0  0  0  0  0  0  0
    3.3238    0.1842    0.8779 C   0  0  0  0  0  0  0  0  0  0  0  0
    4.4525   -0.4791    0.5762 C   0  0  0  0  0  0  0  0  0  0  0  0
    4.5939   -1.0503   -0.7526 C   0  0  0  0  0  0  0  0  0  0  0  0
    3.6171   -0.9438   -1.6639 C   0  0  0  0  0  0  0  0  0  0  0  0
    3.7809   -1.6252   -3.2345 Cl  0  0  0  0  0  0  0  0  0  0  0  0
    2.3472   -0.2219   -1.3262 C   0  0  0  0  0  0  0  0  0  0  0  0
    1.4162   -0.1311   -2.1237 O   0  0  0  0  0  0  0  0  0  0  0  0
    5.5839   -0.6680    1.5465 C   0  0  0  0  0  0  0  0  0  0  0  0
    6.7372   -0.1281    1.0765 F   0  0  0  0  0  0  0  0  0  0  0  0
    5.3437   -0.0910    2.7514 F   0  0  0  0  0  0  0  0  0  0  0  0
    5.8308   -1.9815    1.7798 F   0  0  0  0  0  0  0  0  0  0  0  0
   -1.9427    1.5898    0.3642 C   0  0  0  0  0  0  0  0  0  0  0  0
   -1.2641    2.5357    0.7650 O   0  0  0  0  0  0  0  0  0  0  0  0
   -3.2158    1.7253   -0.1349 N   0  0  0  0  0  0  0  0  0  0  0  0
   -3.7722    3.0604   -0.2552 C   0  0  0  0  0  0  0  0  0  0  0  0
   -4.0640    0.6559   -0.3667 C   0  0  0  0  0  0  0  0  0  0  0  0
   -5.2471    0.8286   -0.6666 O   0  0  0  0  0  0  0  0  0  0  0  0
   -1.7230   -2.1463    0.2694 N   0  0  0  0  0  0  0  0  0  0  0  0
   -3.8465   -2.3877   -1.2969 H   0  0  0  0  0  0  0  0  0  0  0  0
   -4.5683   -2.3209    0.3456 H   0  0  0  0  0  0  0  0  0  0  0  0
   -5.3092   -1.4450   -1.0031 H   0  0  0  0  0  0  0  0  0  0  0  0
    1.2767    1.7522    1.1388 H   0  0  0  0  0  0  0  0  0  0  0  0
    0.6892    1.5661   -0.5308 H   0  0  0  0  0  0  0  0  0  0  0  0
    3.1664    0.6214    1.8624 H   0  0  0  0  0  0  0  0  0  0  0  0
    5.5172   -1.5740   -0.9887 H   0  0  0  0  0  0  0  0  0  0  0  0
   -2.9860    3.8121   -0.3700 H   0  0  0  0  0  0  0  0  0  0  0  0
   -4.3453    3.2786    0.6517 H   0  0  0  0  0  0  0  0  0  0  0  0
   -4.4425    3.1188   -1.1185 H   0  0  0  0  0  0  0  0  0  0  0  0
   -2.4085   -2.7744    0.6767 H   0  0  0  0  0  0  0  0  0  0  0  0
   -0.8459   -2.2117    0.8018 H   0  0  0  0  0  0  0  0  0  0  0  0
  1  2  1  0
  2  3  1  0
  3  4  2  0
  4  5  1  0
  5  6  2  0
  5  7  1  0
  7  8  1  0
  8  9  1  0
  9 10  2  0
 10 11  1  0
 11 12  2  0
 12 13  1  0
 12 14  1  0
 14 15  2  0
 10 16  1  0
 16 17  1  0
 16 18  1  0
 16 19  1  0
  4 20  1  0
 20 21  2  0
 20 22  1  0
 22 23  1  0
 22 24  1  0
 24 25  2  0
  3 26  1  0
 24  2  1  0
 14  8  1  0
  1 27  1  0
  1 28  1  0
  1 29  1  0
  7 30  1  0
  7 31  1  0
  9 32  1  0
 11 33  1  0
 23 34  1  0
 23 35  1  0
 23 36  1  0
 26 37  1  0
 26 38  1  0
M  END
>  <Unnamed: 0>  (129) 
911

>  <ID>  (129) 
TRAIN_0911

>  <Canonical_Smiles>  (129) 
CN1C(=C(C(=O)CN2C=C(C=C(Cl)C2=O)C(F)(F)F)C(=O)N(C)C1=O)N

>  <Inhibition>  (129) 
3.54308

>  <TDC_conf_true_inhibitor>  (129) 
0

>  <TDC_conf_non_inhibitor>  (129) 
1

>  <split>  (129) 
1

$$$$
129
     RDKit          3D

 33 35  0  0  0  0  0  0  0  0999 V2000
    5.4101   -1.5602   -0.4591 N   0  0  0  0  0  0  0  0  0  0  0  0
    4.8166   -0.3198   -0.2052 C   0  0  0  0  0  0  0  0  0  0  0  0
    5.5194    0.6659    0.4519 C   0  0  0  0  0  0  0  0  0  0  0  0
    4.8552    1.8513    0.6568 C   0  0  0  0  0  0  0  0  0  0  0  0
    3.5913    2.0693    0.2576 N   0  0  0  0  0  0  0  0  0  0  0  0
    2.9710    1.0403   -0.3542 C   0  0  0  0  0  0  0  0  0  0  0  0
    1.5607    1.2462   -0.8155 C   0  0  0  0  0  0  0  0  0  0  0  0
    0.6415    0.5308    0.0397 N   0  0  0  0  0  0  0  0  0  0  0  0
    0.3862    0.9243    1.3054 N   0  0  0  0  0  0  0  0  0  0  0  0
   -0.5980    0.1398    1.7196 N   0  0  0  0  0  0  0  0  0  0  0  0
   -0.9321   -0.6575    0.6574 C   0  0  0  0  0  0  0  0  0  0  0  0
   -1.9943   -1.6866    0.7345 C   0  0  0  0  0  0  0  0  0  0  0  0
   -3.2826   -0.9930    0.3548 C   0  0  0  0  0  0  0  0  0  0  0  0
   -3.6922   -0.9344   -0.9856 C   0  0  0  0  0  0  0  0  0  0  0  0
   -4.8794   -0.2878   -1.3375 C   0  0  0  0  0  0  0  0  0  0  0  0
   -5.6730    0.3113   -0.3557 C   0  0  0  0  0  0  0  0  0  0  0  0
   -7.1285    1.0913   -0.8642 Cl  0  0  0  0  0  0  0  0  0  0  0  0
   -5.2739    0.2646    0.9838 C   0  0  0  0  0  0  0  0  0  0  0  0
   -6.2018    0.9833    2.2523 Cl  0  0  0  0  0  0  0  0  0  0  0  0
   -4.0838   -0.3835    1.3349 C   0  0  0  0  0  0  0  0  0  0  0  0
   -0.1890   -0.4288   -0.4375 N   0  0  0  0  0  0  0  0  0  0  0  0
    3.5547   -0.1462   -0.6140 N   0  0  0  0  0  0  0  0  0  0  0  0
    5.6637   -2.0085    0.4163 H   0  0  0  0  0  0  0  0  0  0  0  0
    6.2545   -1.4395   -1.0096 H   0  0  0  0  0  0  0  0  0  0  0  0
    6.5366    0.5278    0.7898 H   0  0  0  0  0  0  0  0  0  0  0  0
    5.3340    2.6843    1.1634 H   0  0  0  0  0  0  0  0  0  0  0  0
    1.2810    2.3048   -0.7902 H   0  0  0  0  0  0  0  0  0  0  0  0
    1.4404    0.8815   -1.8411 H   0  0  0  0  0  0  0  0  0  0  0  0
   -2.0640   -2.1022    1.7460 H   0  0  0  0  0  0  0  0  0  0  0  0
   -1.7920   -2.5239    0.0570 H   0  0  0  0  0  0  0  0  0  0  0  0
   -3.0806   -1.3855   -1.7663 H   0  0  0  0  0  0  0  0  0  0  0  0
   -5.1778   -0.2518   -2.3827 H   0  0  0  0  0  0  0  0  0  0  0  0
   -3.7739   -0.4071    2.3787 H   0  0  0  0  0  0  0  0  0  0  0  0
  1  2  1  0
  2  3  2  0
  3  4  1  0
  4  5  2  0
  5  6  1  0
  6  7  1  0
  7  8  1  0
  8  9  1  0
  9 10  2  0
 10 11  1  0
 11 12  1  0
 12 13  1  0
 13 14  2  0
 14 15  1  0
 15 16  2  0
 16 17  1  0
 16 18  1  0
 18 19  1  0
 18 20  2  0
 11 21  2  0
  6 22  2  0
 22  2  1  0
 21  8  1  0
 20 13  1  0
  1 23  1  0
  1 24  1  0
  3 25  1  0
  4 26  1  0
  7 27  1  0
  7 28  1  0
 12 29  1  0
 12 30  1  0
 14 31  1  0
 15 32  1  0
 20 33  1  0
M  END
>  <Unnamed: 0>  (130) 
913

>  <ID>  (130) 
TRAIN_0913

>  <Canonical_Smiles>  (130) 
Nc1ccnc(Cn2nnc(Cc3ccc(Cl)c(Cl)c3)n2)n1

>  <Inhibition>  (130) 
49.891179

>  <TDC_conf_true_inhibitor>  (130) 
1

>  <TDC_conf_non_inhibitor>  (130) 
0

>  <split>  (130) 
1

$$$$
130
     RDKit          3D

 50 53  0  0  0  0  0  0  0  0999 V2000
   -2.8581    1.1764   -1.1205 O   0  0  0  0  0  0  0  0  0  0  0  0
   -2.3003    0.7702   -0.1074 C   0  0  0  0  0  0  0  0  0  0  0  0
   -0.8094    0.9596    0.1232 C   0  0  0  0  0  0  0  0  0  0  0  0
   -0.0467    1.3786   -1.1341 C   0  0  0  0  0  0  0  0  0  0  0  0
   -0.0194    0.3550   -2.2751 C   0  0  0  0  0  0  0  0  0  0  0  0
    0.4877   -1.3464   -1.8368 S   0  0  0  0  0  0  0  0  0  0  0  0
    2.1692   -1.0477   -1.3648 C   0  0  0  0  0  0  0  0  0  0  0  0
    3.2193   -1.3893   -2.1962 C   0  0  0  0  0  0  0  0  0  0  0  0
    4.5241   -1.1350   -1.7707 C   0  0  0  0  0  0  0  0  0  0  0  0
    4.7336   -0.5563   -0.5261 C   0  0  0  0  0  0  0  0  0  0  0  0
    6.0560   -0.2959   -0.1432 N   0  0  0  0  0  0  0  0  0  0  0  0
    6.4273    0.2614    1.0591 C   0  0  0  0  0  0  0  0  0  0  0  0
    5.6882    0.5909    1.9752 O   0  0  0  0  0  0  0  0  0  0  0  0
    7.8984    0.4732    1.2454 C   0  0  0  0  0  0  0  0  0  0  0  0
    8.9453   -0.4639    0.6896 C   0  0  0  0  0  0  0  0  0  0  0  0
    8.8029    0.9194    0.1194 C   0  0  0  0  0  0  0  0  0  0  0  0
    3.6869   -0.2551    0.2633 N   0  0  0  0  0  0  0  0  0  0  0  0
    2.3965   -0.5056   -0.1546 N   0  0  0  0  0  0  0  0  0  0  0  0
   -2.9041    0.1370    0.9665 N   0  0  0  0  0  0  0  0  0  0  0  0
   -4.2717   -0.1779    1.1180 C   0  0  0  0  0  0  0  0  0  0  0  0
   -4.6810   -0.8339    2.2760 C   0  0  0  0  0  0  0  0  0  0  0  0
   -5.9578   -1.1900    2.5582 N   0  0  0  0  0  0  0  0  0  0  0  0
   -6.9019   -0.8903    1.6517 C   0  0  0  0  0  0  0  0  0  0  0  0
   -8.2241   -1.2338    1.9014 C   0  0  0  0  0  0  0  0  0  0  0  0
   -9.2439   -0.9426    0.9907 C   0  0  0  0  0  0  0  0  0  0  0  0
   -8.9421   -0.2951   -0.2027 C   0  0  0  0  0  0  0  0  0  0  0  0
   -7.6233    0.0606   -0.4785 C   0  0  0  0  0  0  0  0  0  0  0  0
   -6.5992   -0.2311    0.4407 C   0  0  0  0  0  0  0  0  0  0  0  0
   -5.2619    0.1217    0.1891 C   0  0  0  0  0  0  0  0  0  0  0  0
   -0.3852    0.0483    0.5559 H   0  0  0  0  0  0  0  0  0  0  0  0
   -0.7019    1.7529    0.8743 H   0  0  0  0  0  0  0  0  0  0  0  0
    0.9808    1.6346   -0.8505 H   0  0  0  0  0  0  0  0  0  0  0  0
   -0.4794    2.3090   -1.5248 H   0  0  0  0  0  0  0  0  0  0  0  0
   -1.0158    0.2742   -2.7201 H   0  0  0  0  0  0  0  0  0  0  0  0
    0.6420    0.7187   -3.0698 H   0  0  0  0  0  0  0  0  0  0  0  0
    3.0379   -1.8453   -3.1645 H   0  0  0  0  0  0  0  0  0  0  0  0
    5.3541   -1.3949   -2.4200 H   0  0  0  0  0  0  0  0  0  0  0  0
    6.7815   -0.5281   -0.8025 H   0  0  0  0  0  0  0  0  0  0  0  0
    8.1224    0.8974    2.2236 H   0  0  0  0  0  0  0  0  0  0  0  0
    9.8108   -0.6696    1.3132 H   0  0  0  0  0  0  0  0  0  0  0  0
    8.6417   -1.3139    0.0923 H   0  0  0  0  0  0  0  0  0  0  0  0
    9.5697    1.6487    0.3591 H   0  0  0  0  0  0  0  0  0  0  0  0
    8.3983    1.0356   -0.8784 H   0  0  0  0  0  0  0  0  0  0  0  0
   -2.2931   -0.1484    1.7235 H   0  0  0  0  0  0  0  0  0  0  0  0
   -3.9704   -1.1061    3.0515 H   0  0  0  0  0  0  0  0  0  0  0  0
   -8.4666   -1.7408    2.8327 H   0  0  0  0  0  0  0  0  0  0  0  0
  -10.2690   -1.2237    1.2173 H   0  0  0  0  0  0  0  0  0  0  0  0
   -9.7293   -0.0650   -0.9153 H   0  0  0  0  0  0  0  0  0  0  0  0
   -7.3943    0.5680   -1.4149 H   0  0  0  0  0  0  0  0  0  0  0  0
   -5.0247    0.6332   -0.7392 H   0  0  0  0  0  0  0  0  0  0  0  0
  1  2  2  0
  2  3  1  0
  3  4  1  0
  4  5  1  0
  5  6  1  0
  6  7  1  0
  7  8  2  0
  8  9  1  0
  9 10  2  0
 10 11  1  0
 11 12  1  0
 12 13  2  0
 12 14  1  0
 14 15  1  0
 15 16  1  0
 10 17  1  0
 17 18  2  0
  2 19  1  0
 19 20  1  0
 20 21  2  0
 21 22  1  0
 22 23  2  0
 23 24  1  0
 24 25  2  0
 25 26  1  0
 26 27  2  0
 27 28  1  0
 28 29  2  0
 18  7  1  0
 16 14  1  0
 29 20  1  0
 28 23  1  0
  3 30  1  0
  3 31  1  0
  4 32  1  0
  4 33  1  0
  5 34  1  0
  5 35  1  0
  8 36  1  0
  9 37  1  0
 11 38  1  0
 14 39  1  0
 15 40  1  0
 15 41  1  0
 16 42  1  0
 16 43  1  0
 19 44  1  0
 21 45  1  0
 24 46  1  0
 25 47  1  0
 26 48  1  0
 27 49  1  0
 29 50  1  0
M  END
>  <Unnamed: 0>  (131) 
918

>  <ID>  (131) 
TRAIN_0918

>  <Canonical_Smiles>  (131) 
O=C(CCCSc1ccc(NC(=O)C2CC2)nn1)Nc3cnc4ccccc4c3

>  <Inhibition>  (131) 
14.463577

>  <TDC_conf_true_inhibitor>  (131) 
0

>  <TDC_conf_non_inhibitor>  (131) 
1

>  <split>  (131) 
1

$$$$
131
     RDKit          3D

 43 44  0  0  0  0  0  0  0  0999 V2000
   -2.8520   -0.1725   -1.2584 C   0  0  0  0  0  0  0  0  0  0  0  0
   -3.3695   -0.1746    0.1964 C   0  0  0  0  0  0  0  0  0  0  0  0
   -3.1515   -1.5502    0.8567 C   0  0  0  0  0  0  0  0  0  0  0  0
   -4.9086    0.0166    0.0976 C   0  0  0  0  0  0  0  0  0  0  0  0
   -2.7097    0.8936    0.9918 N   0  0  0  0  0  0  0  0  0  0  0  0
   -3.3911    1.9155    1.6298 C   0  0  0  0  0  0  0  0  0  0  0  0
   -2.4854    2.7599    2.2263 C   0  0  0  0  0  0  0  0  0  0  0  0
   -1.2053    2.2404    1.9632 C   0  0  0  0  0  0  0  0  0  0  0  0
   -1.3440    1.0806    1.2190 C   0  0  0  0  0  0  0  0  0  0  0  0
   -0.3534    0.2249    0.7588 N   0  0  0  0  0  0  0  0  0  0  0  0
    1.0002    0.4695    0.9172 C   0  0  0  0  0  0  0  0  0  0  0  0
    1.5352    1.4474    1.4268 O   0  0  0  0  0  0  0  0  0  0  0  0
    1.8974   -0.5464    0.3189 C   0  0  0  0  0  0  0  0  0  0  0  0
    2.8764   -0.0707   -0.5671 C   0  0  0  0  0  0  0  0  0  0  0  0
    3.7768   -0.9662   -1.1482 C   0  0  0  0  0  0  0  0  0  0  0  0
    3.7035   -2.3320   -0.8696 C   0  0  0  0  0  0  0  0  0  0  0  0
    2.7353   -2.8002    0.0224 C   0  0  0  0  0  0  0  0  0  0  0  0
    1.8356   -1.9117    0.6250 C   0  0  0  0  0  0  0  0  0  0  0  0
    0.7097   -2.5685    1.7549 Cl  0  0  0  0  0  0  0  0  0  0  0  0
    4.9903   -0.3511   -2.2936 S   0  0  0  0  0  6  0  0  0  0  0  0
    5.6433   -1.5008   -2.8897 O   0  0  0  0  0  0  0  0  0  0  0  0
    4.3209    0.6359   -3.1173 O   0  0  0  0  0  0  0  0  0  0  0  0
    6.1697    0.4740   -1.2568 C   0  0  0  0  0  0  0  0  0  0  0  0
   -2.8097    3.9358    2.9713 C   0  0  0  0  0  0  0  0  0  0  0  0
   -3.0858    4.8884    3.5746 N   0  0  0  0  0  0  0  0  0  0  0  0
   -1.7985   -0.4477   -1.3423 H   0  0  0  0  0  0  0  0  0  0  0  0
   -3.4084   -0.8884   -1.8749 H   0  0  0  0  0  0  0  0  0  0  0  0
   -2.9675    0.8186   -1.7129 H   0  0  0  0  0  0  0  0  0  0  0  0
   -3.4872   -1.5424    1.9004 H   0  0  0  0  0  0  0  0  0  0  0  0
   -2.1061   -1.8611    0.8544 H   0  0  0  0  0  0  0  0  0  0  0  0
   -3.7118   -2.3329    0.3319 H   0  0  0  0  0  0  0  0  0  0  0  0
   -5.3857   -0.0229    1.0838 H   0  0  0  0  0  0  0  0  0  0  0  0
   -5.1670    0.9728   -0.3724 H   0  0  0  0  0  0  0  0  0  0  0  0
   -5.3670   -0.7741   -0.5089 H   0  0  0  0  0  0  0  0  0  0  0  0
   -4.4702    1.9845    1.6147 H   0  0  0  0  0  0  0  0  0  0  0  0
   -0.2711    2.6698    2.3034 H   0  0  0  0  0  0  0  0  0  0  0  0
   -0.6198   -0.6221    0.2807 H   0  0  0  0  0  0  0  0  0  0  0  0
    2.9228    0.9931   -0.8004 H   0  0  0  0  0  0  0  0  0  0  0  0
    4.3906   -3.0370   -1.3355 H   0  0  0  0  0  0  0  0  0  0  0  0
    2.6932   -3.8642    0.2495 H   0  0  0  0  0  0  0  0  0  0  0  0
    6.5855   -0.2458   -0.5491 H   0  0  0  0  0  0  0  0  0  0  0  0
    6.9636    0.8677   -1.8951 H   0  0  0  0  0  0  0  0  0  0  0  0
    5.6762    1.2942   -0.7325 H   0  0  0  0  0  0  0  0  0  0  0  0
  1  2  1  0
  2  3  1  0
  2  4  1  0
  2  5  1  0
  5  6  1  0
  6  7  2  0
  7  8  1  0
  8  9  2  0
  9 10  1  0
 10 11  1  0
 11 12  2  0
 11 13  1  0
 13 14  2  0
 14 15  1  0
 15 16  2  0
 16 17  1  0
 17 18  2  0
 18 19  1  0
 15 20  1  0
 20 21  2  0
 20 22  2  0
 20 23  1  0
  7 24  1  0
 24 25  3  0
  9  5  1  0
 18 13  1  0
  1 26  1  0
  1 27  1  0
  1 28  1  0
  3 29  1  0
  3 30  1  0
  3 31  1  0
  4 32  1  0
  4 33  1  0
  4 34  1  0
  6 35  1  0
  8 36  1  0
 10 37  1  0
 14 38  1  0
 16 39  1  0
 17 40  1  0
 23 41  1  0
 23 42  1  0
 23 43  1  0
M  END
>  <Unnamed: 0>  (132) 
919

>  <ID>  (132) 
TRAIN_0919

>  <Canonical_Smiles>  (132) 
CC(C)(C)n1cc(cc1NC(=O)c2cc(ccc2Cl)S(=O)(=O)C)C#N

>  <Inhibition>  (132) 
13.528998

>  <TDC_conf_true_inhibitor>  (132) 
0

>  <TDC_conf_non_inhibitor>  (132) 
1

>  <split>  (132) 
1

$$$$
132
     RDKit          3D

 45 49  0  0  0  0  0  0  0  0999 V2000
    1.9265    0.7945    0.3737 O   0  0  0  0  0  0  0  0  0  0  0  0
    1.8870   -0.2618   -0.2546 C   0  0  0  0  0  0  0  0  0  0  0  0
    0.7205   -1.0046   -0.5220 N   0  0  0  0  0  0  0  0  0  0  0  0
    0.7495   -2.1033   -1.3721 C   0  0  0  0  0  0  0  0  0  0  0  0
    1.8048   -2.6243   -1.9149 N   0  0  0  0  0  0  0  0  0  0  0  0
    2.9590   -1.9866   -1.5981 C   0  0  0  0  0  0  0  0  0  0  0  0
    4.4661   -2.5527   -2.1650 S   0  0  0  0  0  0  0  0  0  0  0  0
    5.3010   -1.2922   -1.3860 C   0  0  0  0  0  0  0  0  0  0  0  0
    6.7889   -1.1523   -1.4805 C   0  0  0  0  0  0  0  0  0  0  0  0
    7.3043   -0.1827   -0.4063 C   0  0  0  0  0  0  0  0  0  0  0  0
    6.4374    1.0811   -0.3225 C   0  0  0  0  0  0  0  0  0  0  0  0
    4.9826    0.7541    0.0524 C   0  0  0  0  0  0  0  0  0  0  0  0
    4.4585   -0.4290   -0.7095 C   0  0  0  0  0  0  0  0  0  0  0  0
    3.0925   -0.8529   -0.8222 C   0  0  0  0  0  0  0  0  0  0  0  0
   -0.5519   -0.6205   -0.1199 N   0  0  0  0  0  0  0  0  0  0  0  0
   -0.6946    0.0836    0.9570 C   0  0  0  0  0  0  0  0  0  0  0  0
   -1.9946    0.5394    1.3722 C   0  0  0  0  0  0  0  0  0  0  0  0
   -3.0893    0.2124    0.6243 O   0  0  0  0  0  0  0  0  0  0  0  0
   -4.1908    0.7549    1.2265 C   0  0  0  0  0  0  0  0  0  0  0  0
   -3.7956    1.4395    2.3592 C   0  0  0  0  0  0  0  0  0  0  0  0
   -2.3882    1.2975    2.4550 C   0  0  0  0  0  0  0  0  0  0  0  0
   -5.4649    0.4957    0.5525 C   0  0  0  0  0  0  0  0  0  0  0  0
   -5.4748    0.3756   -0.8513 C   0  0  0  0  0  0  0  0  0  0  0  0
   -6.6586    0.1396   -1.5549 C   0  0  0  0  0  0  0  0  0  0  0  0
   -7.8608    0.0158   -0.8690 C   0  0  0  0  0  0  0  0  0  0  0  0
   -7.8768    0.1243    0.5205 C   0  0  0  0  0  0  0  0  0  0  0  0
   -6.6889    0.3612    1.2360 C   0  0  0  0  0  0  0  0  0  0  0  0
   -6.7819    0.4327    2.6662 C   0  0  0  0  0  0  0  0  0  0  0  0
   -6.8749    0.5008    3.8215 N   0  0  0  0  0  0  0  0  0  0  0  0
   -0.2436   -2.5429   -1.5637 H   0  0  0  0  0  0  0  0  0  0  0  0
    7.0469   -0.7646   -2.4738 H   0  0  0  0  0  0  0  0  0  0  0  0
    7.2852   -2.1223   -1.3632 H   0  0  0  0  0  0  0  0  0  0  0  0
    8.3426    0.0889   -0.6275 H   0  0  0  0  0  0  0  0  0  0  0  0
    7.3049   -0.6823    0.5711 H   0  0  0  0  0  0  0  0  0  0  0  0
    6.8565    1.7754    0.4145 H   0  0  0  0  0  0  0  0  0  0  0  0
    6.4587    1.5937   -1.2929 H   0  0  0  0  0  0  0  0  0  0  0  0
    4.3623    1.6374   -0.1346 H   0  0  0  0  0  0  0  0  0  0  0  0
    4.9257    0.5299    1.1247 H   0  0  0  0  0  0  0  0  0  0  0  0
    0.1337    0.3435    1.6353 H   0  0  0  0  0  0  0  0  0  0  0  0
   -4.4333    1.9866    3.0406 H   0  0  0  0  0  0  0  0  0  0  0  0
   -1.7416    1.7050    3.2202 H   0  0  0  0  0  0  0  0  0  0  0  0
   -4.5463    0.4713   -1.4139 H   0  0  0  0  0  0  0  0  0  0  0  0
   -6.6360    0.0526   -2.6389 H   0  0  0  0  0  0  0  0  0  0  0  0
   -8.7835   -0.1694   -1.4140 H   0  0  0  0  0  0  0  0  0  0  0  0
   -8.8241    0.0172    1.0477 H   0  0  0  0  0  0  0  0  0  0  0  0
  1  2  2  0
  2  3  1  0
  3  4  1  0
  4  5  2  0
  5  6  1  0
  6  7  1  0
  7  8  1  0
  8  9  1  0
  9 10  1  0
 10 11  1  0
 11 12  1  0
 12 13  1  0
 13 14  1  0
  3 15  1  0
 15 16  2  0
 16 17  1  0
 17 18  1  0
 18 19  1  0
 19 20  2  0
 20 21  1  0
 19 22  1  0
 22 23  2  0
 23 24  1  0
 24 25  2  0
 25 26  1  0
 26 27  2  0
 27 28  1  0
 28 29  3  0
 14  2  1  0
 14  6  2  0
 13  8  2  0
 21 17  2  0
 27 22  1  0
  4 30  1  0
  9 31  1  0
  9 32  1  0
 10 33  1  0
 10 34  1  0
 11 35  1  0
 11 36  1  0
 12 37  1  0
 12 38  1  0
 16 39  1  0
 20 40  1  0
 21 41  1  0
 23 42  1  0
 24 43  1  0
 25 44  1  0
 26 45  1  0
M  END
>  <Unnamed: 0>  (133) 
926

>  <ID>  (133) 
TRAIN_0926

>  <Canonical_Smiles>  (133) 
O=C1N(C=Nc2sc3CCCCc3c12)\N=C\c4oc(cc4)c5ccccc5C#N

>  <Inhibition>  (133) 
36.46356

>  <TDC_conf_true_inhibitor>  (133) 
0

>  <TDC_conf_non_inhibitor>  (133) 
1

>  <split>  (133) 
1

$$$$
133
     RDKit          3D

 54 57  0  0  0  0  0  0  0  0999 V2000
   -5.9480    3.9933   -0.8350 C   0  0  0  0  0  0  0  0  0  0  0  0
   -5.2688    2.8704   -0.1118 C   0  0  0  0  0  0  0  0  0  0  0  0
   -5.9478    1.8665    0.4585 C   0  0  0  0  0  0  0  0  0  0  0  0
   -5.1910    0.7725    1.1231 C   0  0  0  0  0  0  0  0  0  0  0  0
   -5.8237   -0.0842    1.7322 O   0  0  0  0  0  0  0  0  0  0  0  0
   -3.8188    0.7696    1.0141 N   0  0  0  0  0  0  0  0  0  0  0  0
   -3.2291    1.7764    0.4480 C   0  0  0  0  0  0  0  0  0  0  0  0
   -1.8703    1.8729    0.3236 N   0  0  0  0  0  0  0  0  0  0  0  0
   -0.8759    0.9233    0.2537 C   0  0  0  0  0  0  0  0  0  0  0  0
   -0.8868   -0.1936   -0.4043 N   0  0  0  0  0  0  0  0  0  0  0  0
   -1.9565   -0.4529   -1.2248 C   0  0  0  0  0  0  0  0  0  0  0  0
   -2.3518    0.3170   -2.0971 O   0  0  0  0  0  0  0  0  0  0  0  0
   -2.6109   -1.7852   -1.0546 C   0  0  0  0  0  0  0  0  0  0  0  0
   -2.1767   -2.6905   -0.0774 C   0  0  0  0  0  0  0  0  0  0  0  0
   -2.8092   -3.9278    0.0628 C   0  0  0  0  0  0  0  0  0  0  0  0
   -3.8754   -4.2661   -0.7703 C   0  0  0  0  0  0  0  0  0  0  0  0
   -4.3132   -3.3701   -1.7449 C   0  0  0  0  0  0  0  0  0  0  0  0
   -3.6836   -2.1320   -1.8877 C   0  0  0  0  0  0  0  0  0  0  0  0
    0.1901    1.3399    1.0295 N   0  0  0  0  0  0  0  0  0  0  0  0
    1.4705    0.7498    1.1143 C   0  0  0  0  0  0  0  0  0  0  0  0
    2.0550    0.0313    0.0638 C   0  0  0  0  0  0  0  0  0  0  0  0
    3.3466   -0.4963    0.1761 C   0  0  0  0  0  0  0  0  0  0  0  0
    4.0883   -0.2794    1.3361 C   0  0  0  0  0  0  0  0  0  0  0  0
    5.3480   -0.7960    1.5335 O   0  0  0  0  0  0  0  0  0  0  0  0
    6.2408   -0.7051    0.4903 C   0  0  0  0  0  0  0  0  0  0  0  0
    6.5003    0.4974   -0.1718 C   0  0  0  0  0  0  0  0  0  0  0  0
    7.4453    0.5322   -1.1981 C   0  0  0  0  0  0  0  0  0  0  0  0
    8.1387   -0.6271   -1.5487 C   0  0  0  0  0  0  0  0  0  0  0  0
    7.8945   -1.8214   -0.8694 C   0  0  0  0  0  0  0  0  0  0  0  0
    6.9502   -1.8590    0.1569 C   0  0  0  0  0  0  0  0  0  0  0  0
    3.5290    0.4363    2.3909 C   0  0  0  0  0  0  0  0  0  0  0  0
    2.2376    0.9600    2.2728 C   0  0  0  0  0  0  0  0  0  0  0  0
   -3.8913    2.8661   -0.0554 N   0  0  0  0  0  0  0  0  0  0  0  0
   -5.6315    4.0186   -1.8829 H   0  0  0  0  0  0  0  0  0  0  0  0
   -7.0383    3.8929   -0.8166 H   0  0  0  0  0  0  0  0  0  0  0  0
   -5.6922    4.9524   -0.3728 H   0  0  0  0  0  0  0  0  0  0  0  0
   -7.0256    1.7844    0.4647 H   0  0  0  0  0  0  0  0  0  0  0  0
   -1.5143    2.8158    0.3366 H   0  0  0  0  0  0  0  0  0  0  0  0
   -1.3518   -2.4380    0.5842 H   0  0  0  0  0  0  0  0  0  0  0  0
   -2.4736   -4.6237    0.8274 H   0  0  0  0  0  0  0  0  0  0  0  0
   -4.3699   -5.2273   -0.6548 H   0  0  0  0  0  0  0  0  0  0  0  0
   -5.1477   -3.6325   -2.3898 H   0  0  0  0  0  0  0  0  0  0  0  0
   -4.0339   -1.4373   -2.6475 H   0  0  0  0  0  0  0  0  0  0  0  0
   -0.1018    1.7495    1.9085 H   0  0  0  0  0  0  0  0  0  0  0  0
    1.5169   -0.1305   -0.8668 H   0  0  0  0  0  0  0  0  0  0  0  0
    3.7568   -1.0736   -0.6479 H   0  0  0  0  0  0  0  0  0  0  0  0
    5.9762    1.4065    0.1080 H   0  0  0  0  0  0  0  0  0  0  0  0
    7.6449    1.4640   -1.7207 H   0  0  0  0  0  0  0  0  0  0  0  0
    8.8757   -0.5982   -2.3474 H   0  0  0  0  0  0  0  0  0  0  0  0
    8.4419   -2.7215   -1.1367 H   0  0  0  0  0  0  0  0  0  0  0  0
    6.7628   -2.7860    0.6916 H   0  0  0  0  0  0  0  0  0  0  0  0
    4.0985    0.5921    3.3031 H   0  0  0  0  0  0  0  0  0  0  0  0
    1.8336    1.5257    3.1086 H   0  0  0  0  0  0  0  0  0  0  0  0
   -3.4332    3.3786   -0.8021 H   0  0  0  0  0  0  0  0  0  0  0  0
  1  2  1  0
  2  3  2  0
  3  4  1  0
  4  5  2  0
  4  6  1  0
  6  7  2  0
  7  8  1  0
  8  9  1  0
  9 10  2  0
 10 11  1  0
 11 12  2  0
 11 13  1  0
 13 14  2  0
 14 15  1  0
 15 16  2  0
 16 17  1  0
 17 18  2  0
  9 19  1  0
 19 20  1  0
 20 21  2  0
 21 22  1  0
 22 23  2  0
 23 24  1  0
 24 25  1  0
 25 26  2  0
 26 27  1  0
 27 28  2  0
 28 29  1  0
 29 30  2  0
 23 31  1  0
 31 32  2  0
  7 33  1  0
 33  2  1  0
 18 13  1  0
 32 20  1  0
 30 25  1  0
  1 34  1  0
  1 35  1  0
  1 36  1  0
  3 37  1  0
  8 38  1  0
 14 39  1  0
 15 40  1  0
 16 41  1  0
 17 42  1  0
 18 43  1  0
 19 44  1  0
 21 45  1  0
 22 46  1  0
 26 47  1  0
 27 48  1  0
 28 49  1  0
 29 50  1  0
 30 51  1  0
 31 52  1  0
 32 53  1  0
 33 54  1  0
M  END
>  <Unnamed: 0>  (134) 
927

>  <ID>  (134) 
TRAIN_0927

>  <Canonical_Smiles>  (134) 
CC1=CC(=O)N=C(N\C(=N/C(=O)c2ccccc2)\Nc3ccc(Oc4ccccc4)cc3)N1

>  <Inhibition>  (134) 
21.633939

>  <TDC_conf_true_inhibitor>  (134) 
0

>  <TDC_conf_non_inhibitor>  (134) 
1

>  <split>  (134) 
1

$$$$
134
     RDKit          3D

 51 54  0  0  0  0  0  0  0  0999 V2000
   -2.7943    4.1696    2.6002 C   0  0  0  0  0  0  0  0  0  0  0  0
   -1.9756    3.5775    1.4884 C   0  0  0  0  0  0  0  0  0  0  0  0
   -1.1673    4.3411    0.7394 C   0  0  0  0  0  0  0  0  0  0  0  0
   -0.4115    3.6992   -0.3439 C   0  0  0  0  0  0  0  0  0  0  0  0
    0.2847    4.3441   -1.1182 O   0  0  0  0  0  0  0  0  0  0  0  0
   -0.5487    2.3500   -0.4343 N   0  0  0  0  0  0  0  0  0  0  0  0
   -1.4021    1.6620    0.3933 C   0  0  0  0  0  0  0  0  0  0  0  0
   -2.1230    2.2216    1.3139 N   0  0  0  0  0  0  0  0  0  0  0  0
   -1.4383    0.2768    0.1051 N   0  0  0  0  0  0  0  0  0  0  0  0
   -2.5516   -0.4280    0.4330 N   0  0  0  0  0  0  0  0  0  0  0  0
   -2.4084   -1.6275   -0.1470 C   0  0  0  0  0  0  0  0  0  0  0  0
   -1.1436   -1.7179   -0.7822 C   0  0  0  0  0  0  0  0  0  0  0  0
   -0.4957   -0.5266   -0.5400 C   0  0  0  0  0  0  0  0  0  0  0  0
    0.8171   -0.1292   -0.7955 N   0  0  0  0  0  0  0  0  0  0  0  0
    1.7382   -0.9528   -1.4206 C   0  0  0  0  0  0  0  0  0  0  0  0
    1.5003   -2.0253   -1.9657 O   0  0  0  0  0  0  0  0  0  0  0  0
    3.1275   -0.4205   -1.5335 C   0  0  0  0  0  0  0  0  0  0  0  0
    3.6826   -0.4757   -2.8240 C   0  0  0  0  0  0  0  0  0  0  0  0
    4.9711   -0.0038   -3.0680 C   0  0  0  0  0  0  0  0  0  0  0  0
    5.7238    0.5229   -2.0238 C   0  0  0  0  0  0  0  0  0  0  0  0
    5.1984    0.5689   -0.7301 C   0  0  0  0  0  0  0  0  0  0  0  0
    3.9038    0.0909   -0.4782 C   0  0  0  0  0  0  0  0  0  0  0  0
    3.2363    0.0929    1.1705 S   0  0  0  0  0  6  0  0  0  0  0  0
    2.2073    1.1233    1.1249 O   0  0  0  0  0  0  0  0  0  0  0  0
    2.8839   -1.2899    1.4372 O   0  0  0  0  0  0  0  0  0  0  0  0
    4.5456    0.5709    2.3069 C   0  0  0  0  0  0  0  0  0  0  0  0
    5.0914    1.7845    2.0079 F   0  0  0  0  0  0  0  0  0  0  0  0
    4.1083    0.6648    3.5950 F   0  0  0  0  0  0  0  0  0  0  0  0
   -3.4610   -2.6497   -0.0629 C   0  0  0  0  0  0  0  0  0  0  0  0
   -3.3289   -3.8895   -0.7069 C   0  0  0  0  0  0  0  0  0  0  0  0
   -4.3398   -4.8527   -0.6198 C   0  0  0  0  0  0  0  0  0  0  0  0
   -5.4959   -4.5903    0.1112 C   0  0  0  0  0  0  0  0  0  0  0  0
   -5.6438   -3.3655    0.7563 C   0  0  0  0  0  0  0  0  0  0  0  0
   -4.6339   -2.4031    0.6693 C   0  0  0  0  0  0  0  0  0  0  0  0
   -3.8606    3.9993    2.4179 H   0  0  0  0  0  0  0  0  0  0  0  0
   -2.5280    3.7056    3.5557 H   0  0  0  0  0  0  0  0  0  0  0  0
   -2.6395    5.2493    2.6977 H   0  0  0  0  0  0  0  0  0  0  0  0
   -1.0517    5.4079    0.8688 H   0  0  0  0  0  0  0  0  0  0  0  0
   -0.1241    1.9206   -1.2432 H   0  0  0  0  0  0  0  0  0  0  0  0
   -0.7307   -2.5784   -1.2887 H   0  0  0  0  0  0  0  0  0  0  0  0
    1.1509    0.7085   -0.3146 H   0  0  0  0  0  0  0  0  0  0  0  0
    3.1044   -0.8916   -3.6494 H   0  0  0  0  0  0  0  0  0  0  0  0
    5.3848   -0.0486   -4.0734 H   0  0  0  0  0  0  0  0  0  0  0  0
    6.7279    0.8962   -2.2188 H   0  0  0  0  0  0  0  0  0  0  0  0
    5.8339    0.9910    0.0415 H   0  0  0  0  0  0  0  0  0  0  0  0
    5.3305   -0.1891    2.2683 H   0  0  0  0  0  0  0  0  0  0  0  0
   -2.4419   -4.1297   -1.2865 H   0  0  0  0  0  0  0  0  0  0  0  0
   -4.2215   -5.8085   -1.1239 H   0  0  0  0  0  0  0  0  0  0  0  0
   -6.2803   -5.3393    0.1790 H   0  0  0  0  0  0  0  0  0  0  0  0
   -6.5427   -3.1541    1.3293 H   0  0  0  0  0  0  0  0  0  0  0  0
   -4.7683   -1.4521    1.1825 H   0  0  0  0  0  0  0  0  0  0  0  0
  1  2  1  0
  2  3  2  0
  3  4  1  0
  4  5  2  0
  4  6  1  0
  6  7  1  0
  7  8  2  0
  7  9  1  0
  9 10  1  0
 10 11  2  0
 11 12  1  0
 12 13  2  0
 13 14  1  0
 14 15  1  0
 15 16  2  0
 15 17  1  0
 17 18  2  0
 18 19  1  0
 19 20  2  0
 20 21  1  0
 21 22  2  0
 22 23  1  0
 23 24  2  0
 23 25  2  0
 23 26  1  0
 26 27  1  0
 26 28  1  0
 11 29  1  0
 29 30  2  0
 30 31  1  0
 31 32  2  0
 32 33  1  0
 33 34  2  0
  8  2  1  0
 13  9  1  0
 22 17  1  0
 34 29  1  0
  1 35  1  0
  1 36  1  0
  1 37  1  0
  3 38  1  0
  6 39  1  0
 12 40  1  0
 14 41  1  0
 18 42  1  0
 19 43  1  0
 20 44  1  0
 21 45  1  0
 26 46  1  0
 30 47  1  0
 31 48  1  0
 32 49  1  0
 33 50  1  0
 34 51  1  0
M  END
>  <Unnamed: 0>  (135) 
934

>  <ID>  (135) 
TRAIN_0934

>  <Canonical_Smiles>  (135) 
CC1=CC(=O)NC(=N1)n2nc(cc2NC(=O)c3ccccc3S(=O)(=O)C(F)F)c4ccccc4

>  <Inhibition>  (135) 
45.641266

>  <TDC_conf_true_inhibitor>  (135) 
0

>  <TDC_conf_non_inhibitor>  (135) 
1

>  <split>  (135) 
1

$$$$
135
     RDKit          3D

 45 50  0  0  0  0  0  0  0  0999 V2000
    0.1795   -0.2368   -2.6276 Cl  0  0  0  0  0  0  0  0  0  0  0  0
    1.1801    0.0203   -1.2508 C   0  0  0  0  0  0  0  0  0  0  0  0
    2.4641   -0.3239   -1.5065 N   0  0  0  0  0  0  0  0  0  0  0  0
    3.3657   -0.1987   -0.5251 C   0  0  0  0  0  0  0  0  0  0  0  0
    4.6840   -0.5607   -0.7709 C   0  0  0  0  0  0  0  0  0  0  0  0
    5.6135   -0.4373    0.2402 C   0  0  0  0  0  0  0  0  0  0  0  0
    6.9338   -0.7506    0.1513 O   0  0  0  0  0  0  0  0  0  0  0  0
    7.3809   -0.4295    1.4852 C   0  0  0  0  0  0  0  0  0  0  0  0
    6.3284    0.0778    2.3328 O   0  0  0  0  0  0  0  0  0  0  0  0
    5.2707    0.0336    1.4814 C   0  0  0  0  0  0  0  0  0  0  0  0
    3.9798    0.4068    1.7757 C   0  0  0  0  0  0  0  0  0  0  0  0
    3.0138    0.2914    0.7593 C   0  0  0  0  0  0  0  0  0  0  0  0
    1.6780    0.6527    0.9775 C   0  0  0  0  0  0  0  0  0  0  0  0
    0.7193    0.5300   -0.0410 C   0  0  0  0  0  0  0  0  0  0  0  0
   -0.7075    0.9379    0.2510 C   0  0  0  0  0  0  0  0  0  0  0  0
   -1.2388    2.0607   -0.6359 C   0  0  0  0  0  0  0  0  0  0  0  0
   -2.4766    1.4038   -1.1468 C   0  0  0  0  0  0  0  0  0  0  0  0
   -2.7286    0.2072   -0.7251 N   0  0  0  0  0  0  0  0  0  0  0  0
   -1.6764   -0.1451    0.0913 N   0  0  0  0  0  0  0  0  0  0  0  0
   -1.7334   -1.2289    0.9754 C   0  0  0  0  0  0  0  0  0  0  0  0
   -0.9822   -1.2577    1.9563 O   0  0  0  0  0  0  0  0  0  0  0  0
   -2.7062   -2.2911    0.7418 C   0  0  0  0  0  0  0  0  0  0  0  0
   -3.3576   -3.0335    1.7125 C   0  0  0  0  0  0  0  0  0  0  0  0
   -4.2069   -4.0363    1.1623 C   0  0  0  0  0  0  0  0  0  0  0  0
   -4.1519   -4.0543   -0.2125 C   0  0  0  0  0  0  0  0  0  0  0  0
   -3.0712   -2.8806   -0.8262 S   0  0  0  0  0  0  0  0  0  0  0  0
   -3.3712    2.0853   -2.0925 C   0  0  0  0  0  0  0  0  0  0  0  0
   -4.0596    3.3709   -1.7022 C   0  0  0  0  0  0  0  0  0  0  0  0
   -4.8606    2.1114   -1.8458 C   0  0  0  0  0  0  0  0  0  0  0  0
    4.9744   -0.9389   -1.7451 H   0  0  0  0  0  0  0  0  0  0  0  0
    8.1717    0.3265    1.4176 H   0  0  0  0  0  0  0  0  0  0  0  0
    7.7962   -1.3342    1.9441 H   0  0  0  0  0  0  0  0  0  0  0  0
    3.7299    0.7732    2.7656 H   0  0  0  0  0  0  0  0  0  0  0  0
    1.3790    1.0167    1.9601 H   0  0  0  0  0  0  0  0  0  0  0  0
   -0.7778    1.2666    1.2971 H   0  0  0  0  0  0  0  0  0  0  0  0
   -1.5051    2.9455   -0.0497 H   0  0  0  0  0  0  0  0  0  0  0  0
   -0.5852    2.3616   -1.4580 H   0  0  0  0  0  0  0  0  0  0  0  0
   -3.2287   -2.8530    2.7735 H   0  0  0  0  0  0  0  0  0  0  0  0
   -4.8171   -4.7151    1.7450 H   0  0  0  0  0  0  0  0  0  0  0  0
   -4.6821   -4.7096   -0.8896 H   0  0  0  0  0  0  0  0  0  0  0  0
   -3.0629    1.9888   -3.1297 H   0  0  0  0  0  0  0  0  0  0  0  0
   -3.9225    3.7624   -0.7007 H   0  0  0  0  0  0  0  0  0  0  0  0
   -4.1767    4.1343   -2.4632 H   0  0  0  0  0  0  0  0  0  0  0  0
   -5.5144    2.0123   -2.7049 H   0  0  0  0  0  0  0  0  0  0  0  0
   -5.2419    1.6382   -0.9471 H   0  0  0  0  0  0  0  0  0  0  0  0
  1  2  1  0
  2  3  2  0
  3  4  1  0
  4  5  2  0
  5  6  1  0
  6  7  1  0
  7  8  1  0
  8  9  1  0
  9 10  1  0
 10 11  1  0
 11 12  2  0
 12 13  1  0
 13 14  2  0
 14 15  1  0
 15 16  1  0
 16 17  1  0
 17 18  2  0
 18 19  1  0
 19 20  1  0
 20 21  2  0
 20 22  1  0
 22 23  2  0
 23 24  1  0
 24 25  2  0
 25 26  1  0
 17 27  1  0
 27 28  1  0
 28 29  1  0
 14  2  1  0
 12  4  1  0
 10  6  2  0
 19 15  1  0
 26 22  1  0
 29 27  1  0
  5 30  1  0
  8 31  1  0
  8 32  1  0
 11 33  1  0
 13 34  1  0
 15 35  1  0
 16 36  1  0
 16 37  1  0
 23 38  1  0
 24 39  1  0
 25 40  1  0
 27 41  1  0
 28 42  1  0
 28 43  1  0
 29 44  1  0
 29 45  1  0
M  END
>  <Unnamed: 0>  (136) 
944

>  <ID>  (136) 
TRAIN_0944

>  <Canonical_Smiles>  (136) 
Clc1nc2cc3OCOc3cc2cc1C4CC(=NN4C(=O)c5cccs5)C6CC6

>  <Inhibition>  (136) 
81.906292

>  <TDC_conf_true_inhibitor>  (136) 
1

>  <TDC_conf_non_inhibitor>  (136) 
0

>  <split>  (136) 
1

$$$$
136
     RDKit          3D

 56 59  0  0  0  0  0  0  0  0999 V2000
   -4.4773    1.8569   -1.6193 C   0  0  0  0  0  0  0  0  0  0  0  0
   -3.6889    1.5487   -0.3452 C   0  0  0  0  0  0  0  0  0  0  0  0
   -3.9695    2.6180    0.7117 C   0  0  0  0  0  0  0  0  0  0  0  0
   -2.1864    1.4396   -0.6736 C   0  0  0  0  0  0  0  0  0  0  0  0
   -1.3785    0.9548    0.4508 N   0  0  0  0  0  0  0  0  0  0  0  0
   -0.6355    1.8570    1.1898 C   0  0  0  0  0  0  0  0  0  0  0  0
   -0.6474    3.0660    0.9494 O   0  0  0  0  0  0  0  0  0  0  0  0
    0.1096    1.3318    2.2335 N   0  0  0  0  0  0  0  0  0  0  0  0
    0.8331    2.2713    3.0702 C   0  0  0  0  0  0  0  0  0  0  0  0
   -0.0276    0.0333    2.7053 C   0  0  0  0  0  0  0  0  0  0  0  0
    0.3078   -0.2914    3.8395 O   0  0  0  0  0  0  0  0  0  0  0  0
   -0.6696   -0.9233    1.7989 C   0  0  0  0  0  0  0  0  0  0  0  0
   -0.6186   -2.3035    1.9092 C   0  0  0  0  0  0  0  0  0  0  0  0
    0.4192   -3.1871    3.0602 S   0  0  0  0  0  0  0  0  0  0  0  0
    1.6385   -3.8833    1.8890 C   0  0  0  0  0  0  0  0  0  0  0  0
    2.1016   -2.8822    0.8463 C   0  0  0  0  0  0  0  0  0  0  0  0
    1.8888   -3.1121   -0.4556 C   0  0  0  0  0  0  0  0  0  0  0  0
    2.2658   -2.0842   -1.4394 C   0  0  0  0  0  0  0  0  0  0  0  0
    2.0518   -2.3049   -2.6308 O   0  0  0  0  0  0  0  0  0  0  0  0
    2.8204   -0.9277   -0.9155 N   0  0  0  0  0  0  0  0  0  0  0  0
    3.1652    0.1115   -1.7722 C   0  0  0  0  0  0  0  0  0  0  0  0
    3.7026    1.2574   -1.3247 C   0  0  0  0  0  0  0  0  0  0  0  0
    4.0758    2.3944   -2.2252 C   0  0  0  0  0  0  0  0  0  0  0  0
    3.9440    1.4145    0.0923 C   0  0  0  0  0  0  0  0  0  0  0  0
    3.6335    0.4375    0.9518 C   0  0  0  0  0  0  0  0  0  0  0  0
    3.0205   -0.8221    0.4532 C   0  0  0  0  0  0  0  0  0  0  0  0
    2.6981   -1.7374    1.3137 N   0  0  0  0  0  0  0  0  0  0  0  0
   -1.2791   -3.1273    1.0602 N   0  0  0  0  0  0  0  0  0  0  0  0
   -1.9934   -2.5579    0.0853 C   0  0  0  0  0  0  0  0  0  0  0  0
   -2.7223   -3.4488   -0.8693 C   0  0  0  0  0  0  0  0  0  0  0  0
   -2.0416   -1.2386   -0.1311 N   0  0  0  0  0  0  0  0  0  0  0  0
   -1.3678   -0.4338    0.7204 C   0  0  0  0  0  0  0  0  0  0  0  0
   -4.1661    2.8103   -2.0598 H   0  0  0  0  0  0  0  0  0  0  0  0
   -5.5504    1.9149   -1.4078 H   0  0  0  0  0  0  0  0  0  0  0  0
   -4.3278    1.0712   -2.3676 H   0  0  0  0  0  0  0  0  0  0  0  0
   -4.0500    0.5897    0.0456 H   0  0  0  0  0  0  0  0  0  0  0  0
   -3.4958    2.3652    1.6649 H   0  0  0  0  0  0  0  0  0  0  0  0
   -5.0449    2.7079    0.8962 H   0  0  0  0  0  0  0  0  0  0  0  0
   -3.5994    3.5988    0.3950 H   0  0  0  0  0  0  0  0  0  0  0  0
   -2.0230    0.7774   -1.5334 H   0  0  0  0  0  0  0  0  0  0  0  0
   -1.8154    2.4211   -0.9946 H   0  0  0  0  0  0  0  0  0  0  0  0
    1.2856    3.0590    2.4606 H   0  0  0  0  0  0  0  0  0  0  0  0
    1.6239    1.7665    3.6334 H   0  0  0  0  0  0  0  0  0  0  0  0
    0.1273    2.7262    3.7726 H   0  0  0  0  0  0  0  0  0  0  0  0
    2.5014   -4.2328    2.4659 H   0  0  0  0  0  0  0  0  0  0  0  0
    1.1884   -4.7660    1.4209 H   0  0  0  0  0  0  0  0  0  0  0  0
    1.4078   -4.0029   -0.8376 H   0  0  0  0  0  0  0  0  0  0  0  0
    2.9719   -0.0501   -2.8306 H   0  0  0  0  0  0  0  0  0  0  0  0
    3.8803    2.1616   -3.2769 H   0  0  0  0  0  0  0  0  0  0  0  0
    3.5006    3.2903   -1.9709 H   0  0  0  0  0  0  0  0  0  0  0  0
    5.1418    2.6272   -2.1319 H   0  0  0  0  0  0  0  0  0  0  0  0
    4.3885    2.3384    0.4496 H   0  0  0  0  0  0  0  0  0  0  0  0
    3.8035    0.5189    2.0184 H   0  0  0  0  0  0  0  0  0  0  0  0
   -2.8585   -4.4472   -0.4436 H   0  0  0  0  0  0  0  0  0  0  0  0
   -3.7094   -3.0343   -1.0958 H   0  0  0  0  0  0  0  0  0  0  0  0
   -2.1527   -3.5384   -1.7992 H   0  0  0  0  0  0  0  0  0  0  0  0
  1  2  1  0
  2  3  1  0
  2  4  1  0
  4  5  1  0
  5  6  1  0
  6  7  2  0
  6  8  1  0
  8  9  1  0
  8 10  1  0
 10 11  2  0
 10 12  1  0
 12 13  2  0
 13 14  1  0
 14 15  1  0
 15 16  1  0
 16 17  2  0
 17 18  1  0
 18 19  2  0
 18 20  1  0
 20 21  1  0
 21 22  2  0
 22 23  1  0
 22 24  1  0
 24 25  2  0
 25 26  1  0
 26 27  2  0
 13 28  1  0
 28 29  2  0
 29 30  1  0
 29 31  1  0
 31 32  2  0
 32  5  1  0
 32 12  1  0
 27 16  1  0
 26 20  1  0
  1 33  1  0
  1 34  1  0
  1 35  1  0
  2 36  1  0
  3 37  1  0
  3 38  1  0
  3 39  1  0
  4 40  1  0
  4 41  1  0
  9 42  1  0
  9 43  1  0
  9 44  1  0
 15 45  1  0
 15 46  1  0
 17 47  1  0
 21 48  1  0
 23 49  1  0
 23 50  1  0
 23 51  1  0
 24 52  1  0
 25 53  1  0
 30 54  1  0
 30 55  1  0
 30 56  1  0
M  END
>  <Unnamed: 0>  (137) 
954

>  <ID>  (137) 
TRAIN_0954

>  <Canonical_Smiles>  (137) 
CC(C)CN1C(=O)N(C)C(=O)c2c(SCC3=CC(=O)N4C=C(C)C=CC4=N3)nc(C)nc12

>  <Inhibition>  (137) 
47.22142

>  <TDC_conf_true_inhibitor>  (137) 
1

>  <TDC_conf_non_inhibitor>  (137) 
0

>  <split>  (137) 
1

$$$$
137
     RDKit          3D

 32 34  0  0  0  0  0  0  0  0999 V2000
   -3.2799   -1.9487   -0.4073 C   0  0  0  0  0  0  0  0  0  0  0  0
   -2.8561   -0.9117    0.6249 C   0  0  0  0  0  0  0  0  0  0  0  0
   -1.6868   -0.0672    0.1511 C   0  0  0  0  0  0  0  0  0  0  0  0
   -1.9122    1.1165   -0.5736 C   0  0  0  0  0  0  0  0  0  0  0  0
   -3.3012    1.6086   -0.8834 C   0  0  0  0  0  0  0  0  0  0  0  0
   -0.9336    1.9194   -1.0340 N   0  0  0  0  0  0  0  0  0  0  0  0
    0.3171    1.5291   -0.7454 C   0  0  0  0  0  0  0  0  0  0  0  0
    1.6195    2.4884   -1.2674 S   0  0  0  0  0  0  0  0  0  0  0  0
    2.7604    1.4413   -0.5517 C   0  0  0  0  0  0  0  0  0  0  0  0
    4.1459    1.5259   -0.5153 C   0  0  0  0  0  0  0  0  0  0  0  0
    4.8569    2.5447   -1.0995 O   0  0  0  0  0  0  0  0  0  0  0  0
    4.8649    0.5916    0.1107 N   0  0  0  0  0  0  0  0  0  0  0  0
    4.1868   -0.3975    0.6825 C   0  0  0  0  0  0  0  0  0  0  0  0
    4.9124   -1.3523    1.3241 O   0  0  0  0  0  0  0  0  0  0  0  0
    2.8697   -0.5943    0.7194 N   0  0  0  0  0  0  0  0  0  0  0  0
    2.1434    0.3607    0.0752 C   0  0  0  0  0  0  0  0  0  0  0  0
    0.7001    0.3957   -0.0434 C   0  0  0  0  0  0  0  0  0  0  0  0
   -0.3436   -0.4657    0.4118 C   0  0  0  0  0  0  0  0  0  0  0  0
   -0.0572   -1.7255    1.1923 C   0  0  0  0  0  0  0  0  0  0  0  0
   -2.4635   -2.6364   -0.6486 H   0  0  0  0  0  0  0  0  0  0  0  0
   -3.6008   -1.4788   -1.3422 H   0  0  0  0  0  0  0  0  0  0  0  0
   -4.1172   -2.5404   -0.0236 H   0  0  0  0  0  0  0  0  0  0  0  0
   -2.6092   -1.4087    1.5698 H   0  0  0  0  0  0  0  0  0  0  0  0
   -3.7116   -0.2745    0.8749 H   0  0  0  0  0  0  0  0  0  0  0  0
   -3.8690    0.8563   -1.4371 H   0  0  0  0  0  0  0  0  0  0  0  0
   -3.8291    1.8669    0.0396 H   0  0  0  0  0  0  0  0  0  0  0  0
   -3.2634    2.5106   -1.5043 H   0  0  0  0  0  0  0  0  0  0  0  0
    4.2111    3.1421   -1.5102 H   0  0  0  0  0  0  0  0  0  0  0  0
    4.1922   -1.9237    1.6332 H   0  0  0  0  0  0  0  0  0  0  0  0
    0.9633   -2.0819    1.0424 H   0  0  0  0  0  0  0  0  0  0  0  0
   -0.7028   -2.5486    0.8745 H   0  0  0  0  0  0  0  0  0  0  0  0
   -0.2064   -1.5419    2.2608 H   0  0  0  0  0  0  0  0  0  0  0  0
  1  2  1  0
  2  3  1  0
  3  4  2  0
  4  5  1  0
  4  6  1  0
  6  7  2  0
  7  8  1  0
  8  9  1  0
  9 10  2  0
 10 11  1  0
 10 12  1  0
 12 13  2  0
 13 14  1  0
 13 15  1  0
 15 16  2  0
 16 17  1  0
 17 18  2  0
 18 19  1  0
 18  3  1  0
 17  7  1  0
 16  9  1  0
  1 20  1  0
  1 21  1  0
  1 22  1  0
  2 23  1  0
  2 24  1  0
  5 25  1  0
  5 26  1  0
  5 27  1  0
 11 28  1  0
 14 29  1  0
 19 30  1  0
 19 31  1  0
 19 32  1  0
M  END
>  <Unnamed: 0>  (138) 
963

>  <ID>  (138) 
TRAIN_0963

>  <Canonical_Smiles>  (138) 
CCc1c(C)nc2sc3c(O)nc(O)nc3c2c1C

>  <Inhibition>  (138) 
26.196621

>  <TDC_conf_true_inhibitor>  (138) 
1

>  <TDC_conf_non_inhibitor>  (138) 
0

>  <split>  (138) 
1

$$$$
138
     RDKit          3D

 49 51  0  0  0  0  0  0  0  0999 V2000
    0.6828    0.0000    0.0000 Cl  0  0  0  0  0  0  0  0  0  0  0  0
    8.8861   -0.7860   -0.4852 C   0  0  0  0  0  0  0  0  0  0  0  0
    7.5660   -0.2971   -0.1516 N   0  0  0  0  0  0  0  0  0  0  0  0
    7.2738    1.0766   -0.3280 C   0  0  0  0  0  0  0  0  0  0  0  0
    8.2176    1.8199   -0.7709 O   0  0  0  0  0  0  0  0  0  0  0  0
    5.9817    1.6761   -0.0424 C   0  0  0  0  0  0  0  0  0  0  0  0
    4.9919    1.0182    0.6657 C   0  0  0  0  0  0  0  0  0  0  0  0
    3.7707    1.6114    0.9238 C   0  0  0  0  0  0  0  0  0  0  0  0
    2.5201    0.8443    1.8878 S   0  0  0  0  0  0  0  0  0  0  0  0
    1.3161   -0.0527    0.9314 C   0  0  0  0  0  0  0  0  0  0  0  0
    0.1664    0.6005    0.5073 C   0  0  0  0  0  0  0  0  0  0  0  0
   -0.8933   -0.0526   -0.1002 C   0  0  0  0  0  0  0  0  0  0  0  0
   -0.8254   -1.3944   -0.2938 C   0  0  0  0  0  0  0  0  0  0  0  0
   -1.9394   -2.1700   -0.6973 N   0  0  0  0  0  0  0  0  0  0  0  0
   -3.2724   -1.6856   -0.5974 C   0  0  0  0  0  0  0  0  0  0  0  0
   -3.7020   -0.5093   -0.2005 N   0  0  0  0  0  0  0  0  0  0  0  0
   -5.0058   -0.4322   -0.0379 C   0  0  0  0  0  0  0  0  0  0  0  0
   -5.8424    0.5889    0.4008 C   0  0  0  0  0  0  0  0  0  0  0  0
   -7.2192    0.3233    0.5067 C   0  0  0  0  0  0  0  0  0  0  0  0
   -7.6639   -0.9183    0.1763 C   0  0  0  0  0  0  0  0  0  0  0  0
   -6.8502   -1.9584   -0.2677 C   0  0  0  0  0  0  0  0  0  0  0  0
   -5.5066   -1.6884   -0.3716 C   0  0  0  0  0  0  0  0  0  0  0  0
   -4.4169   -2.4429   -0.7177 N   0  0  0  0  0  0  0  0  0  0  0  0
   -8.1301    1.4163    0.9857 C   0  0  0  0  0  0  0  0  0  0  0  0
   -9.1242    1.5041    0.0412 F   0  0  0  0  0  0  0  0  0  0  0  0
   -7.4314    2.6287    0.9611 F   0  0  0  0  0  0  0  0  0  0  0  0
   -8.5424    1.0563    2.2281 F   0  0  0  0  0  0  0  0  0  0  0  0
    0.3369   -2.0834    0.1166 C   0  0  0  0  0  0  0  0  0  0  0  0
    1.3879   -1.4335    0.7163 C   0  0  0  0  0  0  0  0  0  0  0  0
    3.5598    2.9094    0.4444 C   0  0  0  0  0  0  0  0  0  0  0  0
    4.5328    3.5368   -0.2408 C   0  0  0  0  0  0  0  0  0  0  0  0
    5.7200    2.9213   -0.4722 N   0  0  0  0  0  0  0  0  0  0  0  0
   -0.6828    0.0000    0.0000 H   0  0  0  0  0  0  0  0  0  0  0  0
    9.5592   -0.8115    0.3786 H   0  0  0  0  0  0  0  0  0  0  0  0
    8.7803   -1.8383   -0.8308 H   0  0  0  0  0  0  0  0  0  0  0  0
    9.3254   -0.1372   -1.2685 H   0  0  0  0  0  0  0  0  0  0  0  0
    6.8451   -0.9529    0.2254 H   0  0  0  0  0  0  0  0  0  0  0  0
    5.1743    0.0219    1.0187 H   0  0  0  0  0  0  0  0  0  0  0  0
    0.1143    1.6884    0.6876 H   0  0  0  0  0  0  0  0  0  0  0  0
   -1.7462    0.5433   -0.4229 H   0  0  0  0  0  0  0  0  0  0  0  0
   -1.7069   -3.1108   -1.0804 H   0  0  0  0  0  0  0  0  0  0  0  0
   -5.5393    1.5722    0.6588 H   0  0  0  0  0  0  0  0  0  0  0  0
   -8.7312   -1.1096    0.2701 H   0  0  0  0  0  0  0  0  0  0  0  0
   -7.2214   -2.9436   -0.4945 H   0  0  0  0  0  0  0  0  0  0  0  0
   -4.4378   -3.4159   -1.0149 H   0  0  0  0  0  0  0  0  0  0  0  0
    0.4126   -3.1396   -0.0155 H   0  0  0  0  0  0  0  0  0  0  0  0
    2.3000   -1.9341    1.0114 H   0  0  0  0  0  0  0  0  0  0  0  0
    2.5966    3.4010    0.6249 H   0  0  0  0  0  0  0  0  0  0  0  0
    4.4126    4.5396   -0.6431 H   0  0  0  0  0  0  0  0  0  0  0  0
  2  3  1  0
  3  4  1  0
  4  5  2  0
  4  6  1  0
  6  7  2  0
  7  8  1  0
  8  9  1  0
  9 10  1  0
 10 11  2  0
 11 12  1  0
 12 13  2  0
 13 14  1  0
 14 15  1  0
 15 16  2  0
 16 17  1  0
 17 18  2  0
 18 19  1  0
 19 20  2  0
 20 21  1  0
 21 22  2  0
 22 23  1  0
 19 24  1  0
 24 25  1  0
 24 26  1  0
 24 27  1  0
 13 28  1  0
 28 29  2  0
  8 30  2  0
 30 31  1  0
 31 32  2  0
 32  6  1  0
 29 10  1  0
 23 15  1  0
 22 17  1  0
  1 33  1  0
  2 34  1  0
  2 35  1  0
  2 36  1  0
  3 37  1  0
  7 38  1  0
 11 39  1  0
 12 40  1  0
 14 41  1  0
 18 42  1  0
 20 43  1  0
 21 44  1  0
 23 45  1  0
 28 46  1  0
 29 47  1  0
 30 48  1  0
 31 49  1  0
M  END
>  <Unnamed: 0>  (139) 
965

>  <ID>  (139) 
TRAIN_0965

>  <Canonical_Smiles>  (139) 
Cl.CNC(=O)c1cc(Sc2ccc(Nc3nc4cc(ccc4[nH]3)C(F)(F)F)cc2)ccn1

>  <Inhibition>  (139) 
76.5

>  <TDC_conf_true_inhibitor>  (139) 
1

>  <TDC_conf_non_inhibitor>  (139) 
0

>  <split>  (139) 
1

$$$$
139
     RDKit          3D

 43 46  0  0  0  0  0  0  0  0999 V2000
    4.9343   -2.0392   -0.1203 O   0  0  0  0  0  0  0  0  0  0  0  0
    3.9616   -1.3062    0.0710 C   0  0  0  0  0  0  0  0  0  0  0  0
    2.6735   -1.8215    0.2253 N   0  0  0  0  0  0  0  0  0  0  0  0
    2.4691   -3.2436   -0.0325 C   0  0  0  0  0  0  0  0  0  0  0  0
    0.9878   -3.6213   -0.1146 C   0  0  0  0  0  0  0  0  0  0  0  0
    0.1789   -2.5450   -0.8435 C   0  0  0  0  0  0  0  0  0  0  0  0
    0.3555   -1.1418   -0.2150 C   0  0  0  0  0  0  0  0  0  0  0  0
    1.5234   -1.1092    0.7837 C   0  0  0  0  0  0  0  0  0  0  0  0
   -0.9047   -0.6833    0.4395 C   0  0  0  0  0  0  0  0  0  0  0  0
   -1.3921   -1.0573    1.6005 N   0  0  0  0  0  0  0  0  0  0  0  0
   -2.5684   -0.3769    1.8014 N   0  0  0  0  0  0  0  0  0  0  0  0
   -2.7973    0.3994    0.7571 C   0  0  0  0  0  0  0  0  0  0  0  0
   -1.7588    0.2264   -0.1232 N   0  0  0  0  0  0  0  0  0  0  0  0
   -3.9407    1.2930    0.5618 C   0  0  0  0  0  0  0  0  0  0  0  0
   -4.1359    2.0257   -0.6191 C   0  0  0  0  0  0  0  0  0  0  0  0
   -5.2432    2.8691   -0.7620 C   0  0  0  0  0  0  0  0  0  0  0  0
   -6.1692    2.9911    0.2712 C   0  0  0  0  0  0  0  0  0  0  0  0
   -5.9917    2.2700    1.4483 C   0  0  0  0  0  0  0  0  0  0  0  0
   -4.8862    1.4277    1.5906 C   0  0  0  0  0  0  0  0  0  0  0  0
    4.2007    0.1636    0.1026 C   0  0  0  0  0  0  0  0  0  0  0  0
    5.4341    0.6297    0.5397 C   0  0  0  0  0  0  0  0  0  0  0  0
    5.7503    1.9511    0.5618 N   0  0  0  0  0  0  0  0  0  0  0  0
    4.7866    2.7818    0.1059 C   0  0  0  0  0  0  0  0  0  0  0  0
    3.5625    2.3188   -0.3519 C   0  0  0  0  0  0  0  0  0  0  0  0
    3.2366    1.0046   -0.3720 N   0  0  0  0  0  0  0  0  0  0  0  0
    2.9714   -3.4935   -0.9749 H   0  0  0  0  0  0  0  0  0  0  0  0
    2.9626   -3.8138    0.7629 H   0  0  0  0  0  0  0  0  0  0  0  0
    0.8796   -4.5882   -0.6185 H   0  0  0  0  0  0  0  0  0  0  0  0
    0.5826   -3.7497    0.8970 H   0  0  0  0  0  0  0  0  0  0  0  0
    0.5270   -2.5048   -1.8845 H   0  0  0  0  0  0  0  0  0  0  0  0
   -0.8759   -2.8426   -0.8873 H   0  0  0  0  0  0  0  0  0  0  0  0
    0.5912   -0.4479   -1.0341 H   0  0  0  0  0  0  0  0  0  0  0  0
    1.2653   -1.6198    1.7217 H   0  0  0  0  0  0  0  0  0  0  0  0
    1.7623   -0.0869    1.0825 H   0  0  0  0  0  0  0  0  0  0  0  0
   -1.6418    0.6835   -1.0133 H   0  0  0  0  0  0  0  0  0  0  0  0
   -3.4430    1.9566   -1.4516 H   0  0  0  0  0  0  0  0  0  0  0  0
   -5.3847    3.4303   -1.6825 H   0  0  0  0  0  0  0  0  0  0  0  0
   -7.0298    3.6457    0.1592 H   0  0  0  0  0  0  0  0  0  0  0  0
   -6.7115    2.3588    2.2580 H   0  0  0  0  0  0  0  0  0  0  0  0
   -4.7638    0.8699    2.5186 H   0  0  0  0  0  0  0  0  0  0  0  0
    6.2091   -0.0468    0.8857 H   0  0  0  0  0  0  0  0  0  0  0  0
    5.0269    3.8392    0.1151 H   0  0  0  0  0  0  0  0  0  0  0  0
    2.8058    3.0032   -0.7190 H   0  0  0  0  0  0  0  0  0  0  0  0
  1  2  2  0
  2  3  1  0
  3  4  1  0
  4  5  1  0
  5  6  1  0
  6  7  1  0
  7  8  1  0
  7  9  1  0
  9 10  2  0
 10 11  1  0
 11 12  2  0
 12 13  1  0
 12 14  1  0
 14 15  2  0
 15 16  1  0
 16 17  2  0
 17 18  1  0
 18 19  2  0
  2 20  1  0
 20 21  2  0
 21 22  1  0
 22 23  2  0
 23 24  1  0
 24 25  2  0
  8  3  1  0
 13  9  1  0
 19 14  1  0
 25 20  1  0
  4 26  1  0
  4 27  1  0
  5 28  1  0
  5 29  1  0
  6 30  1  0
  6 31  1  0
  7 32  1  0
  8 33  1  0
  8 34  1  0
 13 35  1  0
 15 36  1  0
 16 37  1  0
 17 38  1  0
 18 39  1  0
 19 40  1  0
 21 41  1  0
 23 42  1  0
 24 43  1  0
M  END
>  <Unnamed: 0>  (140) 
968

>  <ID>  (140) 
TRAIN_0968

>  <Canonical_Smiles>  (140) 
O=C(N1CCCC(C1)c2nnc([nH]2)c3ccccc3)c4cnccn4

>  <Inhibition>  (140) 
25.1

>  <TDC_conf_true_inhibitor>  (140) 
1

>  <TDC_conf_non_inhibitor>  (140) 
0

>  <split>  (140) 
1

$$$$
140
     RDKit          3D

 36 38  0  0  0  0  0  0  0  0999 V2000
   -4.6264   -1.3324    1.1874 C   0  0  0  0  0  0  0  0  0  0  0  0
   -4.0654   -1.7081   -0.1712 C   0  0  0  0  0  0  0  0  0  0  0  0
   -3.1233   -0.7168   -0.6093 O   0  0  0  0  0  0  0  0  0  0  0  0
   -1.8410   -0.8867   -0.1886 C   0  0  0  0  0  0  0  0  0  0  0  0
   -1.4707   -1.7975    0.5344 O   0  0  0  0  0  0  0  0  0  0  0  0
   -1.0996    0.1542   -0.6752 N   0  0  0  0  0  0  0  0  0  0  0  0
    0.2314    0.3928   -0.3626 C   0  0  0  0  0  0  0  0  0  0  0  0
    0.8874    1.6045   -0.1733 C   0  0  0  0  0  0  0  0  0  0  0  0
    2.2272    1.4150    0.0652 N   0  0  0  0  0  0  0  0  0  0  0  0
    2.4142    0.1178    0.0327 C   0  0  0  0  0  0  0  0  0  0  0  0
    3.6070   -0.6398    0.2100 C   0  0  0  0  0  0  0  0  0  0  0  0
    3.6029   -1.9747    0.0134 C   0  0  0  0  0  0  0  0  0  0  0  0
    4.8266   -2.8232    0.1832 C   0  0  0  0  0  0  0  0  0  0  0  0
    2.3774   -2.6530   -0.3931 C   0  0  0  0  0  0  0  0  0  0  0  0
    1.2434   -1.9451   -0.5287 C   0  0  0  0  0  0  0  0  0  0  0  0
    1.2403   -0.5689   -0.2757 N   0  0  0  0  0  0  0  0  0  0  0  0
    0.2853    3.0631   -0.1529 C   0  0  0  0  0  0  0  0  0  0  0  0
   -1.0444    3.4252   -0.2075 C   0  0  0  0  0  0  0  0  0  0  0  0
   -1.2255    4.8428   -0.1715 C   0  0  0  0  0  0  0  0  0  0  0  0
   -0.0287    5.5141   -0.0769 C   0  0  0  0  0  0  0  0  0  0  0  0
    1.2994    4.4421   -0.0178 S   0  0  0  0  0  0  0  0  0  0  0  0
   -5.3893   -2.0494    1.5037 H   0  0  0  0  0  0  0  0  0  0  0  0
   -5.0721   -0.3328    1.1561 H   0  0  0  0  0  0  0  0  0  0  0  0
   -3.8370   -1.3052    1.9452 H   0  0  0  0  0  0  0  0  0  0  0  0
   -3.6169   -2.7082   -0.1593 H   0  0  0  0  0  0  0  0  0  0  0  0
   -4.8736   -1.7281   -0.9097 H   0  0  0  0  0  0  0  0  0  0  0  0
   -1.6607    0.9113   -1.0331 H   0  0  0  0  0  0  0  0  0  0  0  0
    4.5048   -0.1046    0.4990 H   0  0  0  0  0  0  0  0  0  0  0  0
    5.0791   -3.3272   -0.7559 H   0  0  0  0  0  0  0  0  0  0  0  0
    5.6959   -2.2290    0.4846 H   0  0  0  0  0  0  0  0  0  0  0  0
    4.6626   -3.5847    0.9531 H   0  0  0  0  0  0  0  0  0  0  0  0
    2.3976   -3.7207   -0.5876 H   0  0  0  0  0  0  0  0  0  0  0  0
    0.3226   -2.4110   -0.8474 H   0  0  0  0  0  0  0  0  0  0  0  0
   -1.8767    2.7406   -0.2419 H   0  0  0  0  0  0  0  0  0  0  0  0
   -2.1866    5.3414   -0.2017 H   0  0  0  0  0  0  0  0  0  0  0  0
    0.1328    6.5821   -0.0269 H   0  0  0  0  0  0  0  0  0  0  0  0
  1  2  1  0
  2  3  1  0
  3  4  1  0
  4  5  2  0
  4  6  1  0
  6  7  1  0
  7  8  2  0
  8  9  1  0
  9 10  2  0
 10 11  1  0
 11 12  2  0
 12 13  1  0
 12 14  1  0
 14 15  2  0
 15 16  1  0
  8 17  1  0
 17 18  2  0
 18 19  1  0
 19 20  2  0
 20 21  1  0
 16  7  1  0
 16 10  1  0
 21 17  1  0
  1 22  1  0
  1 23  1  0
  1 24  1  0
  2 25  1  0
  2 26  1  0
  6 27  1  0
 11 28  1  0
 13 29  1  0
 13 30  1  0
 13 31  1  0
 14 32  1  0
 15 33  1  0
 18 34  1  0
 19 35  1  0
 20 36  1  0
M  END
>  <Unnamed: 0>  (141) 
975

>  <ID>  (141) 
TRAIN_0975

>  <Canonical_Smiles>  (141) 
CCOC(=O)Nc1c(nc2cc(C)ccn12)c3cccs3

>  <Inhibition>  (141) 
12.1

>  <TDC_conf_true_inhibitor>  (141) 
0

>  <TDC_conf_non_inhibitor>  (141) 
1

>  <split>  (141) 
1

$$$$
141
     RDKit          3D

 49 51  0  0  0  0  0  0  0  0999 V2000
    0.0000    0.0000    0.0000 I   0  0  0  0  0 15  0  0  0  0  0  0
    3.6947   -3.3333    1.0619 C   0  0  0  0  0  0  0  0  0  0  0  0
    3.4041   -1.9965    0.7501 O   0  0  0  0  0  0  0  0  0  0  0  0
    2.1291   -1.4935    0.6296 C   0  0  0  0  0  0  0  0  0  0  0  0
    1.0077   -2.3115    0.8170 C   0  0  0  0  0  0  0  0  0  0  0  0
   -0.2643   -1.7881    0.6917 C   0  0  0  0  0  0  0  0  0  0  0  0
   -1.5153   -2.5625    0.8585 C   0  0  0  0  0  0  0  0  0  0  0  0
   -2.7435   -1.7793    0.5778 C   0  0  0  0  0  0  0  0  0  0  0  0
   -2.6251   -0.6869   -0.3360 N   0  0  0  0  0  4  0  0  0  0  0  0
   -3.8953    0.0020   -0.3832 C   0  0  0  0  0  0  0  0  0  0  0  0
   -2.3152   -1.1641   -1.6425 C   0  0  0  0  0  0  0  0  0  0  0  0
   -1.6479    0.2297    0.2048 C   0  0  0  0  0  0  0  0  0  0  0  0
   -1.2285    1.3346   -0.7193 C   0  0  0  0  0  0  0  0  0  0  0  0
    0.1422    1.7030   -0.1146 C   0  0  0  0  0  0  0  0  0  0  0  0
   -0.1799    2.4266    1.1317 C   0  0  0  0  0  0  0  0  0  0  0  0
    0.1885    3.6511    1.3985 C   0  0  0  0  0  0  0  0  0  0  0  0
    0.9746    4.3922    0.4267 C   0  0  0  0  0  0  0  0  0  0  0  0
    1.3520    5.5700    0.6364 O   0  0  0  0  0  0  0  0  0  0  0  0
    1.3072    3.6927   -0.8175 C   0  0  0  0  0  0  0  0  0  0  0  0
    0.9336    2.4713   -1.0716 C   0  0  0  0  0  0  0  0  0  0  0  0
    0.6944    0.3823    0.1895 C   0  0  0  0  0  0  0  0  0  0  0  0
    1.9813   -0.1580    0.3185 C   0  0  0  0  0  0  0  0  0  0  0  0
    3.1009    0.6409    0.1354 O   0  0  0  0  0  0  0  0  0  0  0  0
    3.6919    0.7855   -1.1413 C   0  0  0  0  0  0  0  0  0  0  0  0
   -0.3524   -0.4706    0.3851 C   0  0  0  0  0  0  0  0  0  0  0  0
    2.9774   -4.0518    0.6199 H   0  0  0  0  0  0  0  0  0  0  0  0
    4.7181   -3.5600    0.6595 H   0  0  0  0  0  0  0  0  0  0  0  0
    3.7341   -3.4798    2.1616 H   0  0  0  0  0  0  0  0  0  0  0  0
    1.1081   -3.3584    1.0609 H   0  0  0  0  0  0  0  0  0  0  0  0
   -1.4603   -3.4894    0.2382 H   0  0  0  0  0  0  0  0  0  0  0  0
   -1.5507   -2.8805    1.9362 H   0  0  0  0  0  0  0  0  0  0  0  0
   -3.2470   -1.4078    1.5172 H   0  0  0  0  0  0  0  0  0  0  0  0
   -3.5014   -2.4893    0.1380 H   0  0  0  0  0  0  0  0  0  0  0  0
   -4.5032   -0.2495    0.5206 H   0  0  0  0  0  0  0  0  0  0  0  0
   -3.7753    1.1069   -0.3621 H   0  0  0  0  0  0  0  0  0  0  0  0
   -4.4793   -0.3394   -1.2517 H   0  0  0  0  0  0  0  0  0  0  0  0
   -1.2835   -1.5872   -1.7240 H   0  0  0  0  0  0  0  0  0  0  0  0
   -2.4793   -0.4179   -2.4486 H   0  0  0  0  0  0  0  0  0  0  0  0
   -2.9979   -2.0102   -1.8701 H   0  0  0  0  0  0  0  0  0  0  0  0
   -2.0752    0.6563    1.1099 H   0  0  0  0  0  0  0  0  0  0  0  0
   -1.9078    2.1984   -0.7099 H   0  0  0  0  0  0  0  0  0  0  0  0
   -0.9979    0.9816   -1.7436 H   0  0  0  0  0  0  0  0  0  0  0  0
   -0.7619    1.9143    1.8982 H   0  0  0  0  0  0  0  0  0  0  0  0
   -0.0845    4.1370    2.3479 H   0  0  0  0  0  0  0  0  0  0  0  0
    1.8985    4.2209   -1.5714 H   0  0  0  0  0  0  0  0  0  0  0  0
    1.2142    2.0173   -2.0084 H   0  0  0  0  0  0  0  0  0  0  0  0
    4.7268    0.3479   -1.1412 H   0  0  0  0  0  0  0  0  0  0  0  0
    3.0765    0.3395   -1.9489 H   0  0  0  0  0  0  0  0  0  0  0  0
    3.8163    1.8629   -1.4152 H   0  0  0  0  0  0  0  0  0  0  0  0
  2  3  1  0
  3  4  1  0
  4  5  2  0
  5  6  1  0
  6  7  1  0
  7  8  1  0
  8  9  1  0
  9 10  1  0
  9 11  1  0
  9 12  1  0
 12 13  1  0
 13 14  1  0
 14 15  1  0
 15 16  2  0
 16 17  1  0
 17 18  2  0
 17 19  1  0
 19 20  2  0
 14 21  1  0
 21 22  2  0
 22 23  1  0
 23 24  1  0
 21 25  1  0
 22  4  1  0
 25  6  2  0
 25 12  1  0
 20 14  1  0
  2 26  1  0
  2 27  1  0
  2 28  1  0
  5 29  1  0
  7 30  1  0
  7 31  1  0
  8 32  1  0
  8 33  1  0
 10 34  1  0
 10 35  1  0
 10 36  1  0
 11 37  1  0
 11 38  1  0
 11 39  1  0
 12 40  1  0
 13 41  1  0
 13 42  1  0
 15 43  1  0
 16 44  1  0
 19 45  1  0
 20 46  1  0
 24 47  1  0
 24 48  1  0
 24 49  1  0
M  CHG  2   1  -1   9   1
M  END
>  <Unnamed: 0>  (142) 
986

>  <ID>  (142) 
TRAIN_0986

>  <Canonical_Smiles>  (142) 
[I-].COc1cc2CC[N+](C)(C)C3CC4(C=CC(=O)C=C4)c(c1OC)c23

>  <Inhibition>  (142) 
10.5

>  <TDC_conf_true_inhibitor>  (142) 
0

>  <TDC_conf_non_inhibitor>  (142) 
1

>  <split>  (142) 
1

$$$$
142
     RDKit          3D

 46 47  0  0  0  0  0  0  0  0999 V2000
    2.2118    3.7611    0.5739 C   0  0  0  0  0  0  0  0  0  0  0  0
    0.8602    3.1364    0.2790 C   0  0  0  0  0  0  0  0  0  0  0  0
    0.9574    1.7362    0.5328 O   0  0  0  0  0  0  0  0  0  0  0  0
   -0.1548    0.9647    0.3481 C   0  0  0  0  0  0  0  0  0  0  0  0
   -1.3807    1.4483   -0.1211 C   0  0  0  0  0  0  0  0  0  0  0  0
   -2.4949    0.6010   -0.3057 C   0  0  0  0  0  0  0  0  0  0  0  0
   -3.7767    1.2103   -0.8121 C   0  0  0  0  0  0  0  0  0  0  0  0
   -2.3847   -0.7740   -0.0133 C   0  0  0  0  0  0  0  0  0  0  0  0
   -1.1510   -1.2550    0.4601 C   0  0  0  0  0  0  0  0  0  0  0  0
   -0.0538   -0.3980    0.6356 C   0  0  0  0  0  0  0  0  0  0  0  0
    1.4745   -1.0929    1.2307 S   0  0  0  0  0  6  0  0  0  0  0  0
    1.3400   -2.5372    1.1749 O   0  0  0  0  0  0  0  0  0  0  0  0
    1.7809   -0.4425    2.4858 O   0  0  0  0  0  0  0  0  0  0  0  0
    2.5755   -0.6768    0.0537 N   0  0  0  0  0  0  0  0  0  0  0  0
    2.4396   -1.2281   -1.2880 C   0  0  0  0  0  0  0  0  0  0  0  0
    3.6245   -0.5472   -1.9812 C   0  0  0  0  0  0  0  0  0  0  0  0
    4.4762    0.0736   -0.9270 N   0  0  0  0  0  0  0  0  0  0  0  0
    3.8072   -0.0233    0.1816 C   0  0  0  0  0  0  0  0  0  0  0  0
    4.3219    0.5057    1.4756 C   0  0  0  0  0  0  0  0  0  0  0  0
   -3.5512   -1.7414   -0.1857 C   0  0  0  0  0  0  0  0  0  0  0  0
   -3.2291   -2.8379   -1.2062 C   0  0  0  0  0  0  0  0  0  0  0  0
   -3.9780   -2.3502    1.1536 C   0  0  0  0  0  0  0  0  0  0  0  0
    2.1931    4.8380    0.3852 H   0  0  0  0  0  0  0  0  0  0  0  0
    2.4955    3.5905    1.6176 H   0  0  0  0  0  0  0  0  0  0  0  0
    2.9907    3.3064   -0.0473 H   0  0  0  0  0  0  0  0  0  0  0  0
    0.6085    3.3142   -0.7727 H   0  0  0  0  0  0  0  0  0  0  0  0
    0.1056    3.5904    0.9315 H   0  0  0  0  0  0  0  0  0  0  0  0
   -1.5035    2.5021   -0.3560 H   0  0  0  0  0  0  0  0  0  0  0  0
   -3.6756    2.2883   -0.9779 H   0  0  0  0  0  0  0  0  0  0  0  0
   -4.0593    0.7595   -1.7688 H   0  0  0  0  0  0  0  0  0  0  0  0
   -4.5796    1.0681   -0.0816 H   0  0  0  0  0  0  0  0  0  0  0  0
   -1.0448   -2.3117    0.7026 H   0  0  0  0  0  0  0  0  0  0  0  0
    2.5717   -2.3141   -1.2821 H   0  0  0  0  0  0  0  0  0  0  0  0
    1.4958   -0.9636   -1.7699 H   0  0  0  0  0  0  0  0  0  0  0  0
    4.2089   -1.2687   -2.5610 H   0  0  0  0  0  0  0  0  0  0  0  0
    3.2780    0.2379   -2.6624 H   0  0  0  0  0  0  0  0  0  0  0  0
    3.6390    1.2620    1.8686 H   0  0  0  0  0  0  0  0  0  0  0  0
    5.3041    0.9646    1.3311 H   0  0  0  0  0  0  0  0  0  0  0  0
    4.4198   -0.3100    2.1965 H   0  0  0  0  0  0  0  0  0  0  0  0
   -4.4234   -1.2064   -0.5749 H   0  0  0  0  0  0  0  0  0  0  0  0
   -2.9313   -2.4023   -2.1665 H   0  0  0  0  0  0  0  0  0  0  0  0
   -4.1077   -3.4681   -1.3824 H   0  0  0  0  0  0  0  0  0  0  0  0
   -2.4171   -3.4909   -0.8688 H   0  0  0  0  0  0  0  0  0  0  0  0
   -4.8688   -2.9747    1.0251 H   0  0  0  0  0  0  0  0  0  0  0  0
   -4.2206   -1.5659    1.8793 H   0  0  0  0  0  0  0  0  0  0  0  0
   -3.1939   -2.9783    1.5897 H   0  0  0  0  0  0  0  0  0  0  0  0
  1  2  1  0
  2  3  1  0
  3  4  1  0
  4  5  2  0
  5  6  1  0
  6  7  1  0
  6  8  2  0
  8  9  1  0
  9 10  2  0
 10 11  1  0
 11 12  2  0
 11 13  2  0
 11 14  1  0
 14 15  1  0
 15 16  1  0
 16 17  1  0
 17 18  2  0
 18 19  1  0
  8 20  1  0
 20 21  1  0
 20 22  1  0
 10  4  1  0
 18 14  1  0
  1 23  1  0
  1 24  1  0
  1 25  1  0
  2 26  1  0
  2 27  1  0
  5 28  1  0
  7 29  1  0
  7 30  1  0
  7 31  1  0
  9 32  1  0
 15 33  1  0
 15 34  1  0
 16 35  1  0
 16 36  1  0
 19 37  1  0
 19 38  1  0
 19 39  1  0
 20 40  1  0
 21 41  1  0
 21 42  1  0
 21 43  1  0
 22 44  1  0
 22 45  1  0
 22 46  1  0
M  END
>  <Unnamed: 0>  (143) 
989

>  <ID>  (143) 
TRAIN_0989

>  <Canonical_Smiles>  (143) 
CCOc1cc(C)c(cc1S(=O)(=O)N2CCN=C2C)C(C)C

>  <Inhibition>  (143) 
49.8

>  <TDC_conf_true_inhibitor>  (143) 
1

>  <TDC_conf_non_inhibitor>  (143) 
0

>  <split>  (143) 
1

$$$$
143
     RDKit          3D

 35 36  0  0  0  0  0  0  0  0999 V2000
    5.1479   -0.2802    0.2498 C   0  0  0  0  0  0  0  0  0  0  0  0
    3.6689   -0.0740    0.1045 C   0  0  0  0  0  0  0  0  0  0  0  0
    2.7838   -0.5675    1.0740 C   0  0  0  0  0  0  0  0  0  0  0  0
    1.3948   -0.3555    0.9787 C   0  0  0  0  0  0  0  0  0  0  0  0
    0.5201   -0.8781    2.0845 C   0  0  0  0  0  0  0  0  0  0  0  0
    0.8938    0.3386   -0.1411 C   0  0  0  0  0  0  0  0  0  0  0  0
   -0.5728    0.5292   -0.3924 C   0  0  0  0  0  0  0  0  0  0  0  0
   -0.9514    1.7223   -0.6927 N   0  0  0  0  0  0  0  0  0  0  0  0
   -2.3621    1.9898   -0.9814 C   0  0  0  0  0  0  0  0  0  0  0  0
   -3.2647    1.5958    0.1881 C   0  0  0  0  0  0  0  0  0  0  0  0
   -3.5622    0.1756    0.1675 N   0  0  0  0  0  0  0  0  0  0  0  0
   -2.6769   -0.8738   -0.0903 C   0  0  0  0  0  0  0  0  0  0  0  0
   -1.3645   -0.7376   -0.3644 C   0  0  0  0  0  0  0  0  0  0  0  0
   -3.2502   -2.3038   -0.0388 C   0  0  0  0  0  0  0  0  0  0  0  0
   -3.9823   -2.4920    1.0918 F   0  0  0  0  0  0  0  0  0  0  0  0
   -4.0781   -2.5476   -1.0862 F   0  0  0  0  0  0  0  0  0  0  0  0
   -2.2948   -3.2690   -0.0516 F   0  0  0  0  0  0  0  0  0  0  0  0
    1.7923    0.8893   -1.0709 C   0  0  0  0  0  0  0  0  0  0  0  0
    1.3766    1.6654   -2.1222 O   0  0  0  0  0  0  0  0  0  0  0  0
    3.1630    0.6781   -0.9584 C   0  0  0  0  0  0  0  0  0  0  0  0
    5.5825    0.5307    0.8424 H   0  0  0  0  0  0  0  0  0  0  0  0
    5.6372   -0.3047   -0.7296 H   0  0  0  0  0  0  0  0  0  0  0  0
    5.3619   -1.2341    0.7431 H   0  0  0  0  0  0  0  0  0  0  0  0
    3.1859   -1.1162    1.9254 H   0  0  0  0  0  0  0  0  0  0  0  0
    0.1344   -1.8699    1.8305 H   0  0  0  0  0  0  0  0  0  0  0  0
    1.0829   -0.9622    3.0210 H   0  0  0  0  0  0  0  0  0  0  0  0
   -0.3128   -0.1972    2.2867 H   0  0  0  0  0  0  0  0  0  0  0  0
   -2.6629    1.5098   -1.9205 H   0  0  0  0  0  0  0  0  0  0  0  0
   -2.4548    3.0706   -1.1375 H   0  0  0  0  0  0  0  0  0  0  0  0
   -2.8154    1.8694    1.1494 H   0  0  0  0  0  0  0  0  0  0  0  0
   -4.2131    2.1372    0.1014 H   0  0  0  0  0  0  0  0  0  0  0  0
   -4.4406   -0.0983    0.6093 H   0  0  0  0  0  0  0  0  0  0  0  0
   -0.7687   -1.6279   -0.5616 H   0  0  0  0  0  0  0  0  0  0  0  0
    0.4723    1.9776   -1.8926 H   0  0  0  0  0  0  0  0  0  0  0  0
    3.8302    1.1104   -1.7000 H   0  0  0  0  0  0  0  0  0  0  0  0
  1  2  1  0
  2  3  2  0
  3  4  1  0
  4  5  1  0
  4  6  2  0
  6  7  1  0
  7  8  2  0
  8  9  1  0
  9 10  1  0
 10 11  1  0
 11 12  1  0
 12 13  2  0
 12 14  1  0
 14 15  1  0
 14 16  1  0
 14 17  1  0
  6 18  1  0
 18 19  1  0
 18 20  2  0
 20  2  1  0
 13  7  1  0
  1 21  1  0
  1 22  1  0
  1 23  1  0
  3 24  1  0
  5 25  1  0
  5 26  1  0
  5 27  1  0
  9 28  1  0
  9 29  1  0
 10 30  1  0
 10 31  1  0
 11 32  1  0
 13 33  1  0
 19 34  1  0
 20 35  1  0
M  END
>  <Unnamed: 0>  (144) 
991

>  <ID>  (144) 
TRAIN_0991

>  <Canonical_Smiles>  (144) 
Cc1cc(C)c(C2=NCCNC(=C2)C(F)(F)F)c(O)c1

>  <Inhibition>  (144) 
16.1

>  <TDC_conf_true_inhibitor>  (144) 
0

>  <TDC_conf_non_inhibitor>  (144) 
1

>  <split>  (144) 
1

$$$$
144
     RDKit          3D

 32 33  0  0  0  0  0  0  0  0999 V2000
   -2.0269   -2.6183   -2.1206 C   0  0  0  0  0  0  0  0  0  0  0  0
   -1.5027   -1.7503   -0.9786 C   0  0  0  0  0  0  0  0  0  0  0  0
    0.3162   -1.6066   -1.1259 S   0  0  0  0  0  0  0  0  0  0  0  0
    0.6613   -0.7618    0.4535 C   0  0  0  0  0  0  0  0  0  0  0  0
    2.1265   -0.6402    0.6687 C   0  0  0  0  0  0  0  0  0  0  0  0
    2.6520    0.6161    0.5894 O   0  0  0  0  0  0  0  0  0  0  0  0
    3.9989    0.5189    0.8178 C   0  0  0  0  0  0  0  0  0  0  0  0
    4.3245   -0.8053    1.0519 C   0  0  0  0  0  0  0  0  0  0  0  0
    3.1233   -1.5480    0.9604 C   0  0  0  0  0  0  0  0  0  0  0  0
    4.7887    1.7198    0.7793 C   0  0  0  0  0  0  0  0  0  0  0  0
    4.4257    2.8685    0.5701 O   0  0  0  0  0  0  0  0  0  0  0  0
    6.0968    1.4627    1.0187 O   0  0  0  0  0  0  0  0  0  0  0  0
   -2.1510   -0.4067   -0.9780 C   0  0  0  0  0  0  0  0  0  0  0  0
   -2.7456   -0.0299    0.1910 O   0  0  0  0  0  0  0  0  0  0  0  0
   -3.2680    1.2231    0.0086 C   0  0  0  0  0  0  0  0  0  0  0  0
   -3.0032    1.6405   -1.2832 C   0  0  0  0  0  0  0  0  0  0  0  0
   -2.2859    0.5971   -1.9152 C   0  0  0  0  0  0  0  0  0  0  0  0
   -3.9492    1.8473    1.1106 C   0  0  0  0  0  0  0  0  0  0  0  0
   -4.1366    1.4095    2.2366 O   0  0  0  0  0  0  0  0  0  0  0  0
   -4.4135    3.0747    0.7781 O   0  0  0  0  0  0  0  0  0  0  0  0
   -3.1148   -2.7343   -2.0468 H   0  0  0  0  0  0  0  0  0  0  0  0
   -1.8146   -2.1834   -3.1046 H   0  0  0  0  0  0  0  0  0  0  0  0
   -1.5896   -3.6227   -2.0897 H   0  0  0  0  0  0  0  0  0  0  0  0
   -1.7186   -2.2687   -0.0370 H   0  0  0  0  0  0  0  0  0  0  0  0
    0.2030    0.2319    0.4458 H   0  0  0  0  0  0  0  0  0  0  0  0
    0.2225   -1.3383    1.2744 H   0  0  0  0  0  0  0  0  0  0  0  0
    5.3169   -1.1810    1.2611 H   0  0  0  0  0  0  0  0  0  0  0  0
    2.9962   -2.6150    1.0815 H   0  0  0  0  0  0  0  0  0  0  0  0
    6.5026    2.3519    0.9596 H   0  0  0  0  0  0  0  0  0  0  0  0
   -3.2921    2.5923   -1.7084 H   0  0  0  0  0  0  0  0  0  0  0  0
   -1.9029    0.5792   -2.9268 H   0  0  0  0  0  0  0  0  0  0  0  0
   -4.8402    3.3769    1.6061 H   0  0  0  0  0  0  0  0  0  0  0  0
  1  2  1  0
  2  3  1  0
  3  4  1  0
  4  5  1  0
  5  6  1  0
  6  7  1  0
  7  8  2  0
  8  9  1  0
  7 10  1  0
 10 11  2  0
 10 12  1  0
  2 13  1  0
 13 14  1  0
 14 15  1  0
 15 16  2  0
 16 17  1  0
 15 18  1  0
 18 19  2  0
 18 20  1  0
  9  5  2  0
 17 13  2  0
  1 21  1  0
  1 22  1  0
  1 23  1  0
  2 24  1  0
  4 25  1  0
  4 26  1  0
  8 27  1  0
  9 28  1  0
 12 29  1  0
 16 30  1  0
 17 31  1  0
 20 32  1  0
M  END
>  <Unnamed: 0>  (145) 
1002

>  <ID>  (145) 
TRAIN_1002

>  <Canonical_Smiles>  (145) 
CC(SCc1oc(cc1)C(=O)O)c2oc(cc2)C(=O)O

>  <Inhibition>  (145) 
17.9

>  <TDC_conf_true_inhibitor>  (145) 
0

>  <TDC_conf_non_inhibitor>  (145) 
1

>  <split>  (145) 
1

$$$$
145
     RDKit          3D

 45 48  0  0  0  0  0  0  0  0999 V2000
    7.1265    2.3787    0.9236 C   0  0  0  0  0  0  0  0  0  0  0  0
    6.3417    1.2718    0.3536 C   0  0  0  0  0  0  0  0  0  0  0  0
    4.9983    1.2699    0.5991 O   0  0  0  0  0  0  0  0  0  0  0  0
    4.5852    0.1320   -0.0598 C   0  0  0  0  0  0  0  0  0  0  0  0
    5.5963   -0.4857   -0.6429 N   0  0  0  0  0  0  0  0  0  0  0  0
    6.7312    0.2510   -0.3767 N   0  0  0  0  0  0  0  0  0  0  0  0
    3.1586   -0.1854   -0.0007 C   0  0  0  0  0  0  0  0  0  0  0  0
    2.4503    0.6684    0.7745 N   0  0  0  0  0  0  0  0  0  0  0  0
    1.1050    0.5012    0.9415 N   0  0  0  0  0  0  0  0  0  0  0  0
    0.4511   -0.5176    0.3499 C   0  0  0  0  0  0  0  0  0  0  0  0
   -0.9383   -0.6829    0.5592 N   0  0  0  0  0  0  0  0  0  0  0  0
   -1.5918    0.3096    1.4156 C   0  0  0  0  0  0  0  0  0  0  0  0
   -1.9002    1.6097    0.6663 C   0  0  0  0  0  0  0  0  0  0  0  0
   -2.8083    1.4339   -0.5562 C   0  0  0  0  0  0  0  0  0  0  0  0
   -4.1955    0.9449   -0.2170 C   0  0  0  0  0  0  0  0  0  0  0  0
   -4.5714   -0.3745   -0.5026 C   0  0  0  0  0  0  0  0  0  0  0  0
   -5.8494   -0.8323   -0.1788 C   0  0  0  0  0  0  0  0  0  0  0  0
   -6.7631    0.0238    0.4330 C   0  0  0  0  0  0  0  0  0  0  0  0
   -6.4000    1.3382    0.7208 C   0  0  0  0  0  0  0  0  0  0  0  0
   -5.1223    1.7975    0.3976 C   0  0  0  0  0  0  0  0  0  0  0  0
    1.1425   -1.4212   -0.4897 C   0  0  0  0  0  0  0  0  0  0  0  0
    0.4846   -2.4766   -1.1711 C   0  0  0  0  0  0  0  0  0  0  0  0
    1.1719   -3.3704   -1.9903 C   0  0  0  0  0  0  0  0  0  0  0  0
    2.5387   -3.2308   -2.1558 C   0  0  0  0  0  0  0  0  0  0  0  0
    3.2124   -2.1932   -1.5093 C   0  0  0  0  0  0  0  0  0  0  0  0
    2.5409   -1.2631   -0.6687 C   0  0  0  0  0  0  0  0  0  0  0  0
    8.1843    2.2769    0.6637 H   0  0  0  0  0  0  0  0  0  0  0  0
    7.0413    2.3876    2.0142 H   0  0  0  0  0  0  0  0  0  0  0  0
    6.7706    3.3391    0.5392 H   0  0  0  0  0  0  0  0  0  0  0  0
   -1.0841   -1.6226    0.9219 H   0  0  0  0  0  0  0  0  0  0  0  0
   -0.9981    0.5157    2.3150 H   0  0  0  0  0  0  0  0  0  0  0  0
   -2.5282   -0.1273    1.7816 H   0  0  0  0  0  0  0  0  0  0  0  0
   -0.9672    2.0781    0.3317 H   0  0  0  0  0  0  0  0  0  0  0  0
   -2.3606    2.3133    1.3709 H   0  0  0  0  0  0  0  0  0  0  0  0
   -2.9042    2.3998   -1.0694 H   0  0  0  0  0  0  0  0  0  0  0  0
   -2.3383    0.7632   -1.2858 H   0  0  0  0  0  0  0  0  0  0  0  0
   -3.8665   -1.0531   -0.9780 H   0  0  0  0  0  0  0  0  0  0  0  0
   -6.1325   -1.8566   -0.4057 H   0  0  0  0  0  0  0  0  0  0  0  0
   -7.7588   -0.3323    0.6833 H   0  0  0  0  0  0  0  0  0  0  0  0
   -7.1130    2.0073    1.1953 H   0  0  0  0  0  0  0  0  0  0  0  0
   -4.8538    2.8267    0.6250 H   0  0  0  0  0  0  0  0  0  0  0  0
   -0.5933   -2.6008   -1.0798 H   0  0  0  0  0  0  0  0  0  0  0  0
    0.6364   -4.1672   -2.5002 H   0  0  0  0  0  0  0  0  0  0  0  0
    3.0870   -3.9200   -2.7936 H   0  0  0  0  0  0  0  0  0  0  0  0
    4.2841   -2.1248   -1.6841 H   0  0  0  0  0  0  0  0  0  0  0  0
  1  2  1  0
  2  3  1  0
  3  4  1  0
  4  5  2  0
  5  6  1  0
  4  7  1  0
  7  8  2  0
  8  9  1  0
  9 10  2  0
 10 11  1  0
 11 12  1  0
 12 13  1  0
 13 14  1  0
 14 15  1  0
 15 16  2  0
 16 17  1  0
 17 18  2  0
 18 19  1  0
 19 20  2  0
 10 21  1  0
 21 22  2  0
 22 23  1  0
 23 24  2  0
 24 25  1  0
 25 26  2  0
  6  2  2  0
 26  7  1  0
 20 15  1  0
 26 21  1  0
  1 27  1  0
  1 28  1  0
  1 29  1  0
 11 30  1  0
 12 31  1  0
 12 32  1  0
 13 33  1  0
 13 34  1  0
 14 35  1  0
 14 36  1  0
 16 37  1  0
 17 38  1  0
 18 39  1  0
 19 40  1  0
 20 41  1  0
 22 42  1  0
 23 43  1  0
 24 44  1  0
 25 45  1  0
M  END
>  <Unnamed: 0>  (146) 
1012

>  <ID>  (146) 
TRAIN_1012

>  <Canonical_Smiles>  (146) 
Cc1oc(nn1)c2nnc(NCCCc3ccccc3)c4ccccc24

>  <Inhibition>  (146) 
35.1

>  <TDC_conf_true_inhibitor>  (146) 
1

>  <TDC_conf_non_inhibitor>  (146) 
0

>  <split>  (146) 
1

$$$$
146
     RDKit          3D

 47 49  0  0  0  0  0  0  0  0999 V2000
   -3.5099   -2.0953   -2.2300 C   0  0  0  0  0  0  0  0  0  0  0  0
   -2.3391   -1.7129   -1.3684 C   0  0  0  0  0  0  0  0  0  0  0  0
   -2.4275   -1.0737   -0.1810 C   0  0  0  0  0  0  0  0  0  0  0  0
   -3.6683   -0.6272    0.5405 C   0  0  0  0  0  0  0  0  0  0  0  0
   -4.0181    0.8254    0.2939 C   0  0  0  0  0  0  0  0  0  0  0  0
   -4.7495    1.2056   -0.8417 C   0  0  0  0  0  0  0  0  0  0  0  0
   -5.0638    2.5483   -1.0703 C   0  0  0  0  0  0  0  0  0  0  0  0
   -4.6477    3.5252   -0.1692 C   0  0  0  0  0  0  0  0  0  0  0  0
   -3.9169    3.1609    0.9607 C   0  0  0  0  0  0  0  0  0  0  0  0
   -3.6037    1.8193    1.1915 C   0  0  0  0  0  0  0  0  0  0  0  0
   -1.0949   -0.8714    0.4371 C   0  0  0  0  0  0  0  0  0  0  0  0
    0.0750   -1.1654   -0.0089 N   0  0  0  0  0  0  0  0  0  0  0  0
    0.0848   -1.7953   -1.2292 C   0  0  0  0  0  0  0  0  0  0  0  0
    1.1950   -2.1596   -1.7921 N   0  0  0  0  0  0  0  0  0  0  0  0
    2.4065   -1.9435   -1.1976 C   0  0  0  0  0  0  0  0  0  0  0  0
    3.2263   -2.9021   -1.4665 N   0  0  0  0  0  0  0  0  0  0  0  0
    2.6838   -0.8197   -0.4730 N   0  0  0  0  0  0  0  0  0  0  0  0
    3.7836   -0.5120    0.3468 C   0  0  0  0  0  0  0  0  0  0  0  0
    4.9135   -1.3214    0.4859 C   0  0  0  0  0  0  0  0  0  0  0  0
    5.9879   -0.9339    1.2931 C   0  0  0  0  0  0  0  0  0  0  0  0
    5.9627    0.2890    1.9588 C   0  0  0  0  0  0  0  0  0  0  0  0
    4.8679    1.1415    1.8082 C   0  0  0  0  0  0  0  0  0  0  0  0
    4.8179    2.4626    2.5156 C   0  0  0  0  0  0  0  0  0  0  0  0
    3.7915    0.7325    1.0044 C   0  0  0  0  0  0  0  0  0  0  0  0
   -1.0962   -2.0512   -1.8669 N   0  0  0  0  0  0  0  0  0  0  0  0
   -1.1481   -0.3096    1.6513 O   0  0  0  0  0  0  0  0  0  0  0  0
   -4.4777   -1.9342   -1.7511 H   0  0  0  0  0  0  0  0  0  0  0  0
   -3.4966   -1.5137   -3.1583 H   0  0  0  0  0  0  0  0  0  0  0  0
   -3.4546   -3.1571   -2.4911 H   0  0  0  0  0  0  0  0  0  0  0  0
   -4.5304   -1.2450    0.2632 H   0  0  0  0  0  0  0  0  0  0  0  0
   -3.5698   -0.8045    1.6194 H   0  0  0  0  0  0  0  0  0  0  0  0
   -5.0863    0.4597   -1.5567 H   0  0  0  0  0  0  0  0  0  0  0  0
   -5.6340    2.8320   -1.9519 H   0  0  0  0  0  0  0  0  0  0  0  0
   -4.8927    4.5702   -0.3481 H   0  0  0  0  0  0  0  0  0  0  0  0
   -3.5900    3.9218    1.6641 H   0  0  0  0  0  0  0  0  0  0  0  0
   -3.0325    1.5536    2.0795 H   0  0  0  0  0  0  0  0  0  0  0  0
    2.6820   -3.5430   -2.0519 H   0  0  0  0  0  0  0  0  0  0  0  0
    1.8458   -0.3017   -0.2417 H   0  0  0  0  0  0  0  0  0  0  0  0
    4.9794   -2.2798   -0.0214 H   0  0  0  0  0  0  0  0  0  0  0  0
    6.8461   -1.5933    1.3954 H   0  0  0  0  0  0  0  0  0  0  0  0
    6.8068    0.5727    2.5831 H   0  0  0  0  0  0  0  0  0  0  0  0
    4.1027    2.4172    3.3433 H   0  0  0  0  0  0  0  0  0  0  0  0
    5.7976    2.7368    2.9217 H   0  0  0  0  0  0  0  0  0  0  0  0
    4.5164    3.2550    1.8228 H   0  0  0  0  0  0  0  0  0  0  0  0
    2.9444    1.4051    0.8842 H   0  0  0  0  0  0  0  0  0  0  0  0
   -1.0305   -2.5083   -2.7665 H   0  0  0  0  0  0  0  0  0  0  0  0
   -0.2389   -0.2595    1.9917 H   0  0  0  0  0  0  0  0  0  0  0  0
  1  2  1  0
  2  3  2  0
  3  4  1  0
  4  5  1  0
  5  6  2  0
  6  7  1  0
  7  8  2  0
  8  9  1  0
  9 10  2  0
  3 11  1  0
 11 12  2  0
 12 13  1  0
 13 14  2  0
 14 15  1  0
 15 16  2  0
 15 17  1  0
 17 18  1  0
 18 19  2  0
 19 20  1  0
 20 21  2  0
 21 22  1  0
 22 23  1  0
 22 24  2  0
 13 25  1  0
 11 26  1  0
 25  2  1  0
 10  5  1  0
 24 18  1  0
  1 27  1  0
  1 28  1  0
  1 29  1  0
  4 30  1  0
  4 31  1  0
  6 32  1  0
  7 33  1  0
  8 34  1  0
  9 35  1  0
 10 36  1  0
 16 37  1  0
 17 38  1  0
 19 39  1  0
 20 40  1  0
 21 41  1  0
 23 42  1  0
 23 43  1  0
 23 44  1  0
 24 45  1  0
 25 46  1  0
 26 47  1  0
M  END
>  <Unnamed: 0>  (147) 
1013

>  <ID>  (147) 
TRAIN_1013

>  <Canonical_Smiles>  (147) 
CC1=C(Cc2ccccc2)C(=N\C(=N/C(=N)Nc3cccc(C)c3)\N1)O

>  <Inhibition>  (147) 
6.99

>  <TDC_conf_true_inhibitor>  (147) 
0

>  <TDC_conf_non_inhibitor>  (147) 
1

>  <split>  (147) 
1

$$$$
147
     RDKit          3D

 47 47  0  0  0  0  0  0  0  0999 V2000
    6.6275    0.7390    1.8225 C   0  0  0  0  0  0  0  0  0  0  0  0
    5.5585   -0.1485    1.4904 O   0  0  0  0  0  0  0  0  0  0  0  0
    4.6572    0.3745    0.6140 C   0  0  0  0  0  0  0  0  0  0  0  0
    4.7143    1.4959    0.1247 O   0  0  0  0  0  0  0  0  0  0  0  0
    3.5878   -0.6415    0.3109 C   0  0  0  0  0  0  0  0  0  0  0  0
    2.3480    0.0397   -0.2563 C   0  0  0  0  0  0  0  0  0  0  0  0
    1.2320   -0.9625   -0.4939 C   0  0  0  0  0  0  0  0  0  0  0  0
    1.4995   -2.1335   -0.7599 O   0  0  0  0  0  0  0  0  0  0  0  0
   -0.1533   -0.4612   -0.4471 C   0  0  0  0  0  0  0  0  0  0  0  0
   -0.5115    0.8626   -0.9008 C   0  0  0  0  0  0  0  0  0  0  0  0
   -1.8559    1.1531   -0.8119 C   0  0  0  0  0  0  0  0  0  0  0  0
   -2.6926   -0.1978   -0.1897 S   0  0  0  0  0  0  0  0  0  0  0  0
   -1.2707   -1.1553    0.0285 C   0  0  0  0  0  0  0  0  0  0  0  0
   -1.4001   -2.5636    0.6701 C   0  0  0  0  0  0  0  0  0  0  0  0
   -2.7604   -2.7811    1.3901 C   0  0  0  0  0  0  0  0  0  0  0  0
   -1.2942   -3.6483   -0.4185 C   0  0  0  0  0  0  0  0  0  0  0  0
   -0.3251   -2.7791    1.7582 C   0  0  0  0  0  0  0  0  0  0  0  0
   -2.6015    2.4436   -1.1813 C   0  0  0  0  0  0  0  0  0  0  0  0
   -3.7072    2.1605   -2.2191 C   0  0  0  0  0  0  0  0  0  0  0  0
   -3.2255    3.0768    0.0796 C   0  0  0  0  0  0  0  0  0  0  0  0
   -1.6426    3.4855   -1.8013 C   0  0  0  0  0  0  0  0  0  0  0  0
    6.2401    1.6772    2.2315 H   0  0  0  0  0  0  0  0  0  0  0  0
    7.2478    0.9334    0.9420 H   0  0  0  0  0  0  0  0  0  0  0  0
    7.2424    0.2554    2.5852 H   0  0  0  0  0  0  0  0  0  0  0  0
    3.9975   -1.3730   -0.3948 H   0  0  0  0  0  0  0  0  0  0  0  0
    3.3223   -1.1643    1.2387 H   0  0  0  0  0  0  0  0  0  0  0  0
    2.0056    0.8042    0.4521 H   0  0  0  0  0  0  0  0  0  0  0  0
    2.5740    0.5348   -1.2077 H   0  0  0  0  0  0  0  0  0  0  0  0
    0.2113    1.5676   -1.2959 H   0  0  0  0  0  0  0  0  0  0  0  0
   -2.7959   -3.7635    1.8773 H   0  0  0  0  0  0  0  0  0  0  0  0
   -2.9277   -2.0292    2.1698 H   0  0  0  0  0  0  0  0  0  0  0  0
   -3.6064   -2.7502    0.6936 H   0  0  0  0  0  0  0  0  0  0  0  0
   -2.0494   -3.5000   -1.2000 H   0  0  0  0  0  0  0  0  0  0  0  0
   -0.3208   -3.6557   -0.9118 H   0  0  0  0  0  0  0  0  0  0  0  0
   -1.4467   -4.6477    0.0052 H   0  0  0  0  0  0  0  0  0  0  0  0
   -0.4859   -3.7252    2.2904 H   0  0  0  0  0  0  0  0  0  0  0  0
   -0.3464   -1.9724    2.5014 H   0  0  0  0  0  0  0  0  0  0  0  0
    0.6895   -2.8289    1.3572 H   0  0  0  0  0  0  0  0  0  0  0  0
   -4.4763    1.4829   -1.8312 H   0  0  0  0  0  0  0  0  0  0  0  0
   -3.2911    1.7047   -3.1247 H   0  0  0  0  0  0  0  0  0  0  0  0
   -4.2145    3.0866   -2.5157 H   0  0  0  0  0  0  0  0  0  0  0  0
   -2.4633    3.2782    0.8395 H   0  0  0  0  0  0  0  0  0  0  0  0
   -3.7176    4.0275   -0.1572 H   0  0  0  0  0  0  0  0  0  0  0  0
   -3.9811    2.4250    0.5356 H   0  0  0  0  0  0  0  0  0  0  0  0
   -2.1760    4.4059   -2.0670 H   0  0  0  0  0  0  0  0  0  0  0  0
   -1.1726    3.1027   -2.7181 H   0  0  0  0  0  0  0  0  0  0  0  0
   -0.8434    3.7650   -1.1047 H   0  0  0  0  0  0  0  0  0  0  0  0
  1  2  1  0
  2  3  1  0
  3  4  2  0
  3  5  1  0
  5  6  1  0
  6  7  1  0
  7  8  2  0
  7  9  1  0
  9 10  1  0
 10 11  2  0
 11 12  1  0
 12 13  1  0
 13 14  1  0
 14 15  1  0
 14 16  1  0
 14 17  1  0
 11 18  1  0
 18 19  1  0
 18 20  1  0
 18 21  1  0
 13  9  2  0
  1 22  1  0
  1 23  1  0
  1 24  1  0
  5 25  1  0
  5 26  1  0
  6 27  1  0
  6 28  1  0
 10 29  1  0
 15 30  1  0
 15 31  1  0
 15 32  1  0
 16 33  1  0
 16 34  1  0
 16 35  1  0
 17 36  1  0
 17 37  1  0
 17 38  1  0
 19 39  1  0
 19 40  1  0
 19 41  1  0
 20 42  1  0
 20 43  1  0
 20 44  1  0
 21 45  1  0
 21 46  1  0
 21 47  1  0
M  END
>  <Unnamed: 0>  (148) 
1017

>  <ID>  (148) 
TRAIN_1017

>  <Canonical_Smiles>  (148) 
COC(=O)CCC(=O)c1cc(sc1C(C)(C)C)C(C)(C)C

>  <Inhibition>  (148) 
15.3

>  <TDC_conf_true_inhibitor>  (148) 
0

>  <TDC_conf_non_inhibitor>  (148) 
1

>  <split>  (148) 
1

$$$$
148
     RDKit          3D

 30 32  0  0  0  0  0  0  0  0999 V2000
    5.0413   -2.3799   -0.5925 O   0  0  0  0  0  0  0  0  0  0  0  0
    4.2316   -1.7342    0.2683 C   0  0  0  0  0  0  0  0  0  0  0  0
    3.6709   -2.3018    1.1875 O   0  0  0  0  0  0  0  0  0  0  0  0
    4.1614   -0.2904   -0.0261 C   0  0  0  0  0  0  0  0  0  0  0  0
    5.3574    0.3768   -0.0592 N   0  0  0  0  0  0  0  0  0  0  0  0
    5.2772    1.7200   -0.1915 C   0  0  0  0  0  0  0  0  0  0  0  0
    4.0656    2.3866   -0.2719 C   0  0  0  0  0  0  0  0  0  0  0  0
    2.8763    1.7394   -0.2432 N   0  0  0  0  0  0  0  0  0  0  0  0
    2.9491    0.3722   -0.1337 C   0  0  0  0  0  0  0  0  0  0  0  0
    1.6389   -0.3359   -0.2188 C   0  0  0  0  0  0  0  0  0  0  0  0
    1.5545   -1.5200   -0.5269 O   0  0  0  0  0  0  0  0  0  0  0  0
    0.5538    0.4803    0.0233 N   0  0  0  0  0  0  0  0  0  0  0  0
   -0.7332    0.0181   -0.0132 C   0  0  0  0  0  0  0  0  0  0  0  0
   -1.8094    0.7393    0.1768 N   0  0  0  0  0  0  0  0  0  0  0  0
   -2.8323   -0.1717    0.0409 C   0  0  0  0  0  0  0  0  0  0  0  0
   -2.4326   -1.4251   -0.2255 N   0  0  0  0  0  0  0  0  0  0  0  0
   -1.0974   -1.2778   -0.2522 N   0  0  0  0  0  0  0  0  0  0  0  0
   -4.3424    0.2217    0.1844 C   0  0  0  0  0  0  0  0  0  0  0  0
   -5.3880   -0.6675    0.0540 C   0  0  0  0  0  0  0  0  0  0  0  0
   -6.6538   -0.0353    0.2344 C   0  0  0  0  0  0  0  0  0  0  0  0
   -6.5232    1.3114    0.4952 C   0  0  0  0  0  0  0  0  0  0  0  0
   -4.8831    1.8039    0.5211 S   0  0  0  0  0  0  0  0  0  0  0  0
    5.0334   -3.3109   -0.2877 H   0  0  0  0  0  0  0  0  0  0  0  0
    6.2221    2.2528   -0.2227 H   0  0  0  0  0  0  0  0  0  0  0  0
    4.0203    3.4668   -0.3680 H   0  0  0  0  0  0  0  0  0  0  0  0
    0.6933    1.4712    0.1949 H   0  0  0  0  0  0  0  0  0  0  0  0
   -0.4846   -2.0672   -0.4357 H   0  0  0  0  0  0  0  0  0  0  0  0
   -5.2494   -1.7208   -0.1603 H   0  0  0  0  0  0  0  0  0  0  0  0
   -7.6086   -0.5430    0.1757 H   0  0  0  0  0  0  0  0  0  0  0  0
   -7.3091    2.0326    0.6724 H   0  0  0  0  0  0  0  0  0  0  0  0
  1  2  1  0
  2  3  2  0
  2  4  1  0
  4  5  2  0
  5  6  1  0
  6  7  2  0
  7  8  1  0
  8  9  2  0
  9 10  1  0
 10 11  2  0
 10 12  1  0
 12 13  1  0
 13 14  2  0
 14 15  1  0
 15 16  2  0
 16 17  1  0
 15 18  1  0
 18 19  2  0
 19 20  1  0
 20 21  2  0
 21 22  1  0
  9  4  1  0
 17 13  1  0
 22 18  1  0
  1 23  1  0
  6 24  1  0
  7 25  1  0
 12 26  1  0
 17 27  1  0
 19 28  1  0
 20 29  1  0
 21 30  1  0
M  END
>  <Unnamed: 0>  (149) 
1023

>  <ID>  (149) 
TRAIN_1023

>  <Canonical_Smiles>  (149) 
OC(=O)c1nccnc1C(=O)Nc2nc(n[nH]2)c3cccs3

>  <Inhibition>  (149) 
14.7

>  <TDC_conf_true_inhibitor>  (149) 
0

>  <TDC_conf_non_inhibitor>  (149) 
1

>  <split>  (149) 
1

$$$$
149
     RDKit          3D

 43 44  0  0  0  0  0  0  0  0999 V2000
    6.4071   -0.2328   -1.3343 C   0  0  0  0  0  0  0  0  0  0  0  0
    5.2254   -0.3857   -0.5500 O   0  0  0  0  0  0  0  0  0  0  0  0
    4.2152    0.4660   -0.8935 C   0  0  0  0  0  0  0  0  0  0  0  0
    4.3015    1.2980   -1.7907 O   0  0  0  0  0  0  0  0  0  0  0  0
    3.0114    0.3092   -0.0745 C   0  0  0  0  0  0  0  0  0  0  0  0
    1.8618    1.1469   -0.1530 C   0  0  0  0  0  0  0  0  0  0  0  0
    0.9292    0.7152    0.7684 C   0  0  0  0  0  0  0  0  0  0  0  0
   -0.4368    1.2698    1.0439 C   0  0  0  0  0  0  0  0  0  0  0  0
   -1.4970    0.2832    0.7893 N   0  0  0  0  0  0  0  0  0  0  0  0
   -2.8109    0.7768    1.2497 C   0  0  0  0  0  0  0  0  0  0  0  0
   -3.7341    1.3103    0.1307 C   0  0  0  0  0  0  0  0  0  0  0  0
   -3.9924    0.3506   -0.9640 N   0  0  0  0  0  0  0  0  0  0  0  0
   -5.3042   -0.3162   -0.8514 C   0  0  0  0  0  0  0  0  0  0  0  0
   -6.4566    0.5896   -1.0630 C   0  0  0  0  0  0  0  0  0  0  0  0
   -7.3736    1.2889   -1.2041 N   0  0  0  0  0  0  0  0  0  0  0  0
   -2.9142   -0.6571   -1.0585 C   0  0  0  0  0  0  0  0  0  0  0  0
   -1.5389   -0.0967   -0.6423 C   0  0  0  0  0  0  0  0  0  0  0  0
    1.4882   -0.3531    1.4375 N   0  0  0  0  0  0  0  0  0  0  0  0
    0.8602   -1.0765    2.5266 C   0  0  0  0  0  0  0  0  0  0  0  0
    2.7294   -0.6498    0.8983 C   0  0  0  0  0  0  0  0  0  0  0  0
    3.5483   -1.8141    1.3516 C   0  0  0  0  0  0  0  0  0  0  0  0
    6.1984   -0.4391   -2.3888 H   0  0  0  0  0  0  0  0  0  0  0  0
    7.1444   -0.9587   -0.9804 H   0  0  0  0  0  0  0  0  0  0  0  0
    6.8242    0.7714   -1.2094 H   0  0  0  0  0  0  0  0  0  0  0  0
    1.7367    1.9849   -0.8289 H   0  0  0  0  0  0  0  0  0  0  0  0
   -0.4577    1.5849    2.0954 H   0  0  0  0  0  0  0  0  0  0  0  0
   -0.6008    2.1781    0.4488 H   0  0  0  0  0  0  0  0  0  0  0  0
   -3.3192   -0.0642    1.7394 H   0  0  0  0  0  0  0  0  0  0  0  0
   -2.7046    1.5422    2.0286 H   0  0  0  0  0  0  0  0  0  0  0  0
   -3.2569    2.1926   -0.3156 H   0  0  0  0  0  0  0  0  0  0  0  0
   -4.6635    1.6792    0.5802 H   0  0  0  0  0  0  0  0  0  0  0  0
   -5.3721   -1.1015   -1.6155 H   0  0  0  0  0  0  0  0  0  0  0  0
   -5.4007   -0.8123    0.1227 H   0  0  0  0  0  0  0  0  0  0  0  0
   -2.8581   -1.0128   -2.0940 H   0  0  0  0  0  0  0  0  0  0  0  0
   -3.1344   -1.5309   -0.4295 H   0  0  0  0  0  0  0  0  0  0  0  0
   -0.7794   -0.8643   -0.8313 H   0  0  0  0  0  0  0  0  0  0  0  0
   -1.3068    0.7596   -1.2905 H   0  0  0  0  0  0  0  0  0  0  0  0
    1.6199   -1.3294    3.2706 H   0  0  0  0  0  0  0  0  0  0  0  0
    0.4030   -1.9795    2.1151 H   0  0  0  0  0  0  0  0  0  0  0  0
    0.1078   -0.4538    3.0132 H   0  0  0  0  0  0  0  0  0  0  0  0
    4.3514   -1.4756    2.0135 H   0  0  0  0  0  0  0  0  0  0  0  0
    3.9932   -2.3310    0.4955 H   0  0  0  0  0  0  0  0  0  0  0  0
    2.9562   -2.5624    1.8859 H   0  0  0  0  0  0  0  0  0  0  0  0
  1  2  1  0
  2  3  1  0
  3  4  2  0
  3  5  1  0
  5  6  1  0
  6  7  2  0
  7  8  1  0
  8  9  1  0
  9 10  1  0
 10 11  1  0
 11 12  1  0
 12 13  1  0
 13 14  1  0
 14 15  3  0
 12 16  1  0
 16 17  1  0
  7 18  1  0
 18 19  1  0
 18 20  1  0
 20 21  1  0
 20  5  2  0
 17  9  1  0
  1 22  1  0
  1 23  1  0
  1 24  1  0
  6 25  1  0
  8 26  1  0
  8 27  1  0
 10 28  1  0
 10 29  1  0
 11 30  1  0
 11 31  1  0
 13 32  1  0
 13 33  1  0
 16 34  1  0
 16 35  1  0
 17 36  1  0
 17 37  1  0
 19 38  1  0
 19 39  1  0
 19 40  1  0
 21 41  1  0
 21 42  1  0
 21 43  1  0
M  END
>  <Unnamed: 0>  (150) 
1025

>  <ID>  (150) 
TRAIN_1025

>  <Canonical_Smiles>  (150) 
COC(=O)c1cc(CN2CCN(CC#N)CC2)n(C)c1C

>  <Inhibition>  (150) 
13.9

>  <TDC_conf_true_inhibitor>  (150) 
0

>  <TDC_conf_non_inhibitor>  (150) 
1

>  <split>  (150) 
1

$$$$
150
     RDKit          3D

 33 34  0  0  0  0  0  0  0  0999 V2000
    6.2859   -0.3664   -0.2647 C   0  0  0  0  0  0  0  0  0  0  0  0
    4.9261   -0.8769    0.1406 C   0  0  0  0  0  0  0  0  0  0  0  0
    4.8113   -1.9484    0.7353 O   0  0  0  0  0  0  0  0  0  0  0  0
    3.7484   -0.0715   -0.1844 C   0  0  0  0  0  0  0  0  0  0  0  0
    3.7199    1.1532   -0.8230 C   0  0  0  0  0  0  0  0  0  0  0  0
    2.4148    1.5562   -0.9244 N   0  0  0  0  0  0  0  0  0  0  0  0
    1.5732    0.6191   -0.3616 C   0  0  0  0  0  0  0  0  0  0  0  0
    2.3880   -0.4019    0.1005 C   0  0  0  0  0  0  0  0  0  0  0  0
    0.1346    0.8245   -0.3434 C   0  0  0  0  0  0  0  0  0  0  0  0
   -0.3508    1.8441   -0.8218 O   0  0  0  0  0  0  0  0  0  0  0  0
   -0.5803   -0.1903    0.2568 N   0  0  0  0  0  0  0  0  0  0  0  0
   -1.9819   -0.3163    0.3705 C   0  0  0  0  0  0  0  0  0  0  0  0
   -2.9007    0.5482   -0.2272 C   0  0  0  0  0  0  0  0  0  0  0  0
   -4.2866    0.3113   -0.1257 C   0  0  0  0  0  0  0  0  0  0  0  0
   -4.7425   -0.8051    0.5933 C   0  0  0  0  0  0  0  0  0  0  0  0
   -3.8345   -1.6669    1.2050 C   0  0  0  0  0  0  0  0  0  0  0  0
   -2.4730   -1.4066    1.1020 C   0  0  0  0  0  0  0  0  0  0  0  0
   -1.6175   -2.2384    1.7739 O   0  0  0  0  0  0  0  0  0  0  0  0
   -5.2586    1.2648   -0.7789 C   0  0  0  0  0  0  0  0  0  0  0  0
   -6.5358    0.7906   -0.8195 F   0  0  0  0  0  0  0  0  0  0  0  0
   -5.3269    2.4599   -0.1305 F   0  0  0  0  0  0  0  0  0  0  0  0
   -4.9305    1.5532   -2.0685 F   0  0  0  0  0  0  0  0  0  0  0  0
    7.0519   -1.0854    0.0408 H   0  0  0  0  0  0  0  0  0  0  0  0
    6.4900    0.5877    0.2287 H   0  0  0  0  0  0  0  0  0  0  0  0
    6.3342   -0.2503   -1.3507 H   0  0  0  0  0  0  0  0  0  0  0  0
    4.5109    1.7786   -1.2164 H   0  0  0  0  0  0  0  0  0  0  0  0
    2.0850    2.4169   -1.3474 H   0  0  0  0  0  0  0  0  0  0  0  0
    2.0738   -1.3114    0.5978 H   0  0  0  0  0  0  0  0  0  0  0  0
   -0.0561   -0.9852    0.5960 H   0  0  0  0  0  0  0  0  0  0  0  0
   -2.5726    1.4094   -0.8042 H   0  0  0  0  0  0  0  0  0  0  0  0
   -5.8095   -1.0055    0.6819 H   0  0  0  0  0  0  0  0  0  0  0  0
   -4.1865   -2.5261    1.7692 H   0  0  0  0  0  0  0  0  0  0  0  0
   -1.1037   -1.6650    2.3710 H   0  0  0  0  0  0  0  0  0  0  0  0
  1  2  1  0
  2  3  2  0
  2  4  1  0
  4  5  2  0
  5  6  1  0
  6  7  1  0
  7  8  2  0
  7  9  1  0
  9 10  2  0
  9 11  1  0
 11 12  1  0
 12 13  2  0
 13 14  1  0
 14 15  2  0
 15 16  1  0
 16 17  2  0
 17 18  1  0
 14 19  1  0
 19 20  1  0
 19 21  1  0
 19 22  1  0
  8  4  1  0
 17 12  1  0
  1 23  1  0
  1 24  1  0
  1 25  1  0
  5 26  1  0
  6 27  1  0
  8 28  1  0
 11 29  1  0
 13 30  1  0
 15 31  1  0
 16 32  1  0
 18 33  1  0
M  END
>  <Unnamed: 0>  (151) 
1026

>  <ID>  (151) 
TRAIN_1026

>  <Canonical_Smiles>  (151) 
CC(=O)c1c[nH]c(c1)C(=O)Nc2cc(ccc2O)C(F)(F)F

>  <Inhibition>  (151) 
37.2

>  <TDC_conf_true_inhibitor>  (151) 
0

>  <TDC_conf_non_inhibitor>  (151) 
1

>  <split>  (151) 
1

$$$$
151
     RDKit          3D

 38 40  0  0  0  0  0  0  0  0999 V2000
    6.3850    0.8920    0.6894 C   0  0  0  0  0  0  0  0  0  0  0  0
    5.0265    0.2752    0.5409 C   0  0  0  0  0  0  0  0  0  0  0  0
    4.8616   -1.1070    0.6014 C   0  0  0  0  0  0  0  0  0  0  0  0
    3.5846   -1.6678    0.4931 C   0  0  0  0  0  0  0  0  0  0  0  0
    2.4472   -0.8868    0.3346 C   0  0  0  0  0  0  0  0  0  0  0  0
    1.2582   -1.4940    0.2380 N   0  0  0  0  0  0  0  0  0  0  0  0
    0.1617   -0.7346    0.0892 C   0  0  0  0  0  0  0  0  0  0  0  0
   -1.0227   -1.4336   -0.0033 N   0  0  0  0  0  0  0  0  0  0  0  0
   -2.3305   -1.0327   -0.1592 C   0  0  0  0  0  0  0  0  0  0  0  0
   -2.6765    0.2572   -0.2537 N   0  0  0  0  0  0  0  0  0  0  0  0
   -3.9763    0.5721   -0.4035 C   0  0  0  0  0  0  0  0  0  0  0  0
   -4.3227    2.0265   -0.5028 C   0  0  0  0  0  0  0  0  0  0  0  0
   -4.9590   -0.3886   -0.4639 C   0  0  0  0  0  0  0  0  0  0  0  0
   -4.5410   -1.7024   -0.3654 C   0  0  0  0  0  0  0  0  0  0  0  0
   -3.2311   -2.0274   -0.2090 N   0  0  0  0  0  0  0  0  0  0  0  0
   -5.5819   -2.8068   -0.4125 C   0  0  0  0  0  0  0  0  0  0  0  0
   -6.4330   -2.6750   -1.4728 F   0  0  0  0  0  0  0  0  0  0  0  0
   -5.0650   -4.0638   -0.5092 F   0  0  0  0  0  0  0  0  0  0  0  0
   -6.3812   -2.8149    0.6939 F   0  0  0  0  0  0  0  0  0  0  0  0
    0.2036    0.6002    0.0342 N   0  0  0  0  0  0  0  0  0  0  0  0
    1.4036    1.2102    0.1320 C   0  0  0  0  0  0  0  0  0  0  0  0
    1.3693    2.7092    0.0615 C   0  0  0  0  0  0  0  0  0  0  0  0
    2.5975    0.5015    0.2873 C   0  0  0  0  0  0  0  0  0  0  0  0
    3.8899    1.0768    0.3965 C   0  0  0  0  0  0  0  0  0  0  0  0
    6.5857    1.1059    1.7437 H   0  0  0  0  0  0  0  0  0  0  0  0
    7.1630    0.2210    0.3104 H   0  0  0  0  0  0  0  0  0  0  0  0
    6.4544    1.8241    0.1188 H   0  0  0  0  0  0  0  0  0  0  0  0
    5.7197   -1.7627    0.7318 H   0  0  0  0  0  0  0  0  0  0  0  0
    3.4759   -2.7495    0.5369 H   0  0  0  0  0  0  0  0  0  0  0  0
   -0.9040   -2.4276    0.0528 H   0  0  0  0  0  0  0  0  0  0  0  0
   -3.4233    2.6474   -0.4373 H   0  0  0  0  0  0  0  0  0  0  0  0
   -4.9938    2.3121    0.3132 H   0  0  0  0  0  0  0  0  0  0  0  0
   -4.8111    2.2346   -1.4599 H   0  0  0  0  0  0  0  0  0  0  0  0
   -6.0043   -0.1286   -0.5832 H   0  0  0  0  0  0  0  0  0  0  0  0
    1.9527    3.0654   -0.7932 H   0  0  0  0  0  0  0  0  0  0  0  0
    1.7665    3.1446    0.9837 H   0  0  0  0  0  0  0  0  0  0  0  0
    0.3424    3.0698   -0.0622 H   0  0  0  0  0  0  0  0  0  0  0  0
    4.0087    2.1579    0.3675 H   0  0  0  0  0  0  0  0  0  0  0  0
  1  2  1  0
  2  3  2  0
  3  4  1  0
  4  5  2  0
  5  6  1  0
  6  7  2  0
  7  8  1  0
  8  9  1  0
  9 10  2  0
 10 11  1  0
 11 12  1  0
 11 13  2  0
 13 14  1  0
 14 15  2  0
 14 16  1  0
 16 17  1  0
 16 18  1  0
 16 19  1  0
  7 20  1  0
 20 21  2  0
 21 22  1  0
 21 23  1  0
 23 24  2  0
 24  2  1  0
 23  5  1  0
 15  9  1  0
  1 25  1  0
  1 26  1  0
  1 27  1  0
  3 28  1  0
  4 29  1  0
  8 30  1  0
 12 31  1  0
 12 32  1  0
 12 33  1  0
 13 34  1  0
 22 35  1  0
 22 36  1  0
 22 37  1  0
 24 38  1  0
M  END
>  <Unnamed: 0>  (152) 
1033

>  <ID>  (152) 
TRAIN_1033

>  <Canonical_Smiles>  (152) 
Cc1ccc2nc(Nc3nc(C)cc(n3)C(F)(F)F)nc(C)c2c1

>  <Inhibition>  (152) 
33.3

>  <TDC_conf_true_inhibitor>  (152) 
1

>  <TDC_conf_non_inhibitor>  (152) 
0

>  <split>  (152) 
1

$$$$
152
     RDKit          3D

 82 87  0  0  0  0  0  0  0  0999 V2000
   -7.1618    6.3146   -1.6393 C   0  0  0  0  0  0  0  0  0  0  0  0
   -5.7875    6.4983   -1.3302 O   0  0  0  0  0  0  0  0  0  0  0  0
   -5.0603    5.3808   -1.0234 C   0  0  0  0  0  0  0  0  0  0  0  0
   -3.7000    5.6145   -0.8202 C   0  0  0  0  0  0  0  0  0  0  0  0
   -2.8313    4.5662   -0.5075 C   0  0  0  0  0  0  0  0  0  0  0  0
   -3.3204    3.2665   -0.3891 C   0  0  0  0  0  0  0  0  0  0  0  0
   -2.5127    2.1496   -0.0837 N   0  0  0  0  0  0  0  0  0  0  0  0
   -1.1654    2.1119    0.2241 C   0  0  0  0  0  0  0  0  0  0  0  0
   -0.4336    3.0896    0.3081 O   0  0  0  0  0  0  0  0  0  0  0  0
   -0.7603    0.8082    0.4246 N   0  0  0  0  0  0  0  0  0  0  0  0
    0.4972    0.3250    0.8387 C   0  0  0  0  0  0  0  0  0  0  0  0
    1.5417    1.1343    1.2849 C   0  0  0  0  0  0  0  0  0  0  0  0
    2.7570    0.5542    1.6698 C   0  0  0  0  0  0  0  0  0  0  0  0
    2.9135   -0.8375    1.6360 C   0  0  0  0  0  0  0  0  0  0  0  0
    1.8657   -1.6499    1.1975 C   0  0  0  0  0  0  0  0  0  0  0  0
    0.6502   -1.0833    0.7921 C   0  0  0  0  0  0  0  0  0  0  0  0
   -0.4477   -1.8657    0.3420 N   0  0  0  0  0  0  0  0  0  0  0  0
   -0.1345   -2.6683   -0.8526 C   0  0  0  0  0  0  0  0  0  0  0  0
   -1.4178   -3.3413   -1.3931 C   0  0  0  0  0  0  0  0  0  0  0  0
   -2.6280   -3.1028   -0.4882 C   0  0  0  0  0  0  0  0  0  0  0  0
   -2.2161   -3.5366    0.9186 C   0  0  0  0  0  0  0  0  0  0  0  0
   -1.0688   -2.6329    1.4451 C   0  0  0  0  0  0  0  0  0  0  0  0
   -1.7911   -5.0012    0.9272 C   0  0  0  0  0  0  0  0  0  0  0  0
   -1.9367   -5.7474    2.0374 C   0  0  0  0  0  0  0  0  0  0  0  0
   -1.5095   -7.1200    2.0695 C   0  0  0  0  0  0  0  0  0  0  0  0
   -0.9745   -7.6900    0.9858 C   0  0  0  0  0  0  0  0  0  0  0  0
   -0.8337   -6.9131   -0.2713 C   0  0  0  0  0  0  0  0  0  0  0  0
   -0.3834   -7.4698   -1.2698 O   0  0  0  0  0  0  0  0  0  0  0  0
   -1.2392   -5.5735   -0.2252 N   0  0  0  0  0  0  0  0  0  0  0  0
   -1.2138   -4.8543   -1.5009 C   0  0  0  0  0  0  0  0  0  0  0  0
    3.8568    1.4481    2.1248 C   0  0  0  0  0  0  0  0  0  0  0  0
    3.6081    2.5270    2.6496 O   0  0  0  0  0  0  0  0  0  0  0  0
    5.1398    1.0050    1.8713 N   0  0  0  0  0  0  0  0  0  0  0  0
    6.2787    1.8855    2.0617 C   0  0  0  0  0  0  0  0  0  0  0  0
    6.4546    2.8837    0.9107 C   0  0  0  0  0  0  0  0  0  0  0  0
    6.6880    2.1976   -0.4184 C   0  0  0  0  0  0  0  0  0  0  0  0
    7.9345    1.6305   -0.7189 C   0  0  0  0  0  0  0  0  0  0  0  0
    8.1345    0.9658   -1.9312 C   0  0  0  0  0  0  0  0  0  0  0  0
    7.0894    0.8663   -2.8475 C   0  0  0  0  0  0  0  0  0  0  0  0
    7.3354    0.0380   -4.3368 Cl  0  0  0  0  0  0  0  0  0  0  0  0
    5.8463    1.4264   -2.5628 C   0  0  0  0  0  0  0  0  0  0  0  0
    5.6456    2.0909   -1.3507 C   0  0  0  0  0  0  0  0  0  0  0  0
   -4.6979    3.0232   -0.5835 C   0  0  0  0  0  0  0  0  0  0  0  0
   -5.0864    1.7080   -0.4386 O   0  0  0  0  0  0  0  0  0  0  0  0
   -6.4788    1.4301   -0.5295 C   0  0  0  0  0  0  0  0  0  0  0  0
   -5.5597    4.0818   -0.9024 C   0  0  0  0  0  0  0  0  0  0  0  0
   -7.5762    7.2885   -1.9140 H   0  0  0  0  0  0  0  0  0  0  0  0
   -7.7154    5.9499   -0.7689 H   0  0  0  0  0  0  0  0  0  0  0  0
   -7.2879    5.6457   -2.4960 H   0  0  0  0  0  0  0  0  0  0  0  0
   -3.3063    6.6249   -0.9095 H   0  0  0  0  0  0  0  0  0  0  0  0
   -1.7809    4.7990   -0.3641 H   0  0  0  0  0  0  0  0  0  0  0  0
   -3.0287    1.2831   -0.0114 H   0  0  0  0  0  0  0  0  0  0  0  0
   -1.3748    0.0605    0.1226 H   0  0  0  0  0  0  0  0  0  0  0  0
    1.4332    2.2142    1.3433 H   0  0  0  0  0  0  0  0  0  0  0  0
    3.8343   -1.3051    1.9728 H   0  0  0  0  0  0  0  0  0  0  0  0
    2.0027   -2.7276    1.1875 H   0  0  0  0  0  0  0  0  0  0  0  0
    0.6416   -3.4117   -0.6336 H   0  0  0  0  0  0  0  0  0  0  0  0
    0.2651   -2.0127   -1.6379 H   0  0  0  0  0  0  0  0  0  0  0  0
   -1.6256   -2.9478   -2.3956 H   0  0  0  0  0  0  0  0  0  0  0  0
   -2.9245   -2.0466   -0.5018 H   0  0  0  0  0  0  0  0  0  0  0  0
   -3.4953   -3.6765   -0.8375 H   0  0  0  0  0  0  0  0  0  0  0  0
   -3.0810   -3.4198    1.5854 H   0  0  0  0  0  0  0  0  0  0  0  0
   -1.4998   -1.9164    2.1574 H   0  0  0  0  0  0  0  0  0  0  0  0
   -0.3236   -3.2225    1.9953 H   0  0  0  0  0  0  0  0  0  0  0  0
   -2.3643   -5.3363    2.9476 H   0  0  0  0  0  0  0  0  0  0  0  0
   -1.6274   -7.6786    2.9921 H   0  0  0  0  0  0  0  0  0  0  0  0
   -0.6398   -8.7185    0.9642 H   0  0  0  0  0  0  0  0  0  0  0  0
   -2.0172   -5.2865   -2.1131 H   0  0  0  0  0  0  0  0  0  0  0  0
   -0.2756   -5.0782   -2.0235 H   0  0  0  0  0  0  0  0  0  0  0  0
    5.2612    0.2501    1.2082 H   0  0  0  0  0  0  0  0  0  0  0  0
    7.1612    1.2449    2.1636 H   0  0  0  0  0  0  0  0  0  0  0  0
    6.1481    2.4315    3.0033 H   0  0  0  0  0  0  0  0  0  0  0  0
    7.3064    3.5413    1.1237 H   0  0  0  0  0  0  0  0  0  0  0  0
    5.5768    3.5374    0.8382 H   0  0  0  0  0  0  0  0  0  0  0  0
    8.7568    1.7020   -0.0103 H   0  0  0  0  0  0  0  0  0  0  0  0
    9.1044    0.5291   -2.1538 H   0  0  0  0  0  0  0  0  0  0  0  0
    5.0300    1.3497   -3.2754 H   0  0  0  0  0  0  0  0  0  0  0  0
    4.6690    2.5226   -1.1349 H   0  0  0  0  0  0  0  0  0  0  0  0
   -7.0436    1.9756    0.2343 H   0  0  0  0  0  0  0  0  0  0  0  0
   -6.6170    0.3603   -0.3447 H   0  0  0  0  0  0  0  0  0  0  0  0
   -6.8575    1.6442   -1.5339 H   0  0  0  0  0  0  0  0  0  0  0  0
   -6.6142    3.8966   -1.0555 H   0  0  0  0  0  0  0  0  0  0  0  0
  1  2  1  0
  2  3  1  0
  3  4  2  0
  4  5  1  0
  5  6  2  0
  6  7  1  0
  7  8  1  0
  8  9  2  0
  8 10  1  0
 10 11  1  0
 11 12  2  0
 12 13  1  0
 13 14  2  0
 14 15  1  0
 15 16  2  0
 16 17  1  0
 17 18  1  0
 18 19  1  0
 19 20  1  0
 20 21  1  0
 21 22  1  0
 21 23  1  0
 23 24  2  0
 24 25  1  0
 25 26  2  0
 26 27  1  0
 27 28  2  0
 27 29  1  0
 29 30  1  0
 13 31  1  0
 31 32  2  0
 31 33  1  0
 33 34  1  0
 34 35  1  0
 35 36  1  0
 36 37  2  0
 37 38  1  0
 38 39  2  0
 39 40  1  0
 39 41  1  0
 41 42  2  0
  6 43  1  0
 43 44  1  0
 44 45  1  0
 43 46  2  0
 46  3  1  0
 16 11  1  0
 22 17  1  0
 30 19  1  0
 29 23  1  0
 42 36  1  0
  1 47  1  0
  1 48  1  0
  1 49  1  0
  4 50  1  0
  5 51  1  0
  7 52  1  0
 10 53  1  0
 12 54  1  0
 14 55  1  0
 15 56  1  0
 18 57  1  0
 18 58  1  0
 19 59  1  0
 20 60  1  0
 20 61  1  0
 21 62  1  0
 22 63  1  0
 22 64  1  0
 24 65  1  0
 25 66  1  0
 26 67  1  0
 30 68  1  0
 30 69  1  0
 33 70  1  0
 34 71  1  0
 34 72  1  0
 35 73  1  0
 35 74  1  0
 37 75  1  0
 38 76  1  0
 41 77  1  0
 42 78  1  0
 45 79  1  0
 45 80  1  0
 45 81  1  0
 46 82  1  0
M  END
>  <Unnamed: 0>  (153) 
1051

>  <ID>  (153) 
TRAIN_1051

>  <Canonical_Smiles>  (153) 
COc1ccc(NC(=O)Nc2cc(ccc2N3CC4CC(C3)C5=CC=CC(=O)N5C4)C(=O)NCCc6ccc(Cl)cc6)c(OC)c1

>  <Inhibition>  (153) 
79.0

>  <TDC_conf_true_inhibitor>  (153) 
1

>  <TDC_conf_non_inhibitor>  (153) 
0

>  <split>  (153) 
1

$$$$
153
     RDKit          3D

 31 34  0  0  0  0  0  0  0  0999 V2000
    5.7824    0.3519   -2.0141 O   0  0  0  0  0  0  0  0  0  0  0  0
    4.8779    0.2960   -1.0005 C   0  0  0  0  0  0  0  0  0  0  0  0
    5.3206    0.3253    0.3002 C   0  0  0  0  0  0  0  0  0  0  0  0
    4.3640    0.2659    1.2968 C   0  0  0  0  0  0  0  0  0  0  0  0
    4.7841    0.2938    2.6049 O   0  0  0  0  0  0  0  0  0  0  0  0
    3.0126    0.1802    0.9309 C   0  0  0  0  0  0  0  0  0  0  0  0
    1.6187    0.0959    1.9265 S   0  0  0  0  0  0  0  0  0  0  0  0
    0.5784    0.0257    0.5827 C   0  0  0  0  0  0  0  0  0  0  0  0
   -0.7552   -0.0564    0.7608 N   0  0  0  0  0  0  0  0  0  0  0  0
   -1.4821   -0.1240   -0.3786 C   0  0  0  0  0  0  0  0  0  0  0  0
   -0.9220   -0.0747   -1.6538 C   0  0  0  0  0  0  0  0  0  0  0  0
    0.4622    0.0170   -1.7940 C   0  0  0  0  0  0  0  0  0  0  0  0
    1.2531    0.0658   -0.6285 C   0  0  0  0  0  0  0  0  0  0  0  0
    2.6713    0.1564   -0.4241 C   0  0  0  0  0  0  0  0  0  0  0  0
    3.6063    0.2155   -1.4190 N   0  0  0  0  0  0  0  0  0  0  0  0
   -2.9388   -0.1998   -0.1739 C   0  0  0  0  0  0  0  0  0  0  0  0
   -3.5755    0.8240    0.5579 C   0  0  0  0  0  0  0  0  0  0  0  0
   -4.9556    0.8172    0.7762 C   0  0  0  0  0  0  0  0  0  0  0  0
   -5.7325   -0.2202    0.2723 C   0  0  0  0  0  0  0  0  0  0  0  0
   -5.1276   -1.2530   -0.4417 C   0  0  0  0  0  0  0  0  0  0  0  0
   -3.7433   -1.2477   -0.6608 C   0  0  0  0  0  0  0  0  0  0  0  0
   -3.0838   -2.6001   -1.5196 Cl  0  0  0  0  0  0  0  0  0  0  0  0
    5.1897    0.3097   -2.7855 H   0  0  0  0  0  0  0  0  0  0  0  0
    6.3761    0.3920    0.5325 H   0  0  0  0  0  0  0  0  0  0  0  0
    3.9924    0.2367    3.1704 H   0  0  0  0  0  0  0  0  0  0  0  0
   -1.5502   -0.1044   -2.5395 H   0  0  0  0  0  0  0  0  0  0  0  0
    0.9231    0.0500   -2.7771 H   0  0  0  0  0  0  0  0  0  0  0  0
   -2.9821    1.6410    0.9677 H   0  0  0  0  0  0  0  0  0  0  0  0
   -5.4186    1.6205    1.3443 H   0  0  0  0  0  0  0  0  0  0  0  0
   -6.8060   -0.2313    0.4436 H   0  0  0  0  0  0  0  0  0  0  0  0
   -5.7395   -2.0688   -0.8194 H   0  0  0  0  0  0  0  0  0  0  0  0
  1  2  1  0
  2  3  2  0
  3  4  1  0
  4  5  1  0
  4  6  2  0
  6  7  1  0
  7  8  1  0
  8  9  2  0
  9 10  1  0
 10 11  2  0
 11 12  1  0
 12 13  2  0
 13 14  1  0
 14 15  2  0
 10 16  1  0
 16 17  2  0
 17 18  1  0
 18 19  2  0
 19 20  1  0
 20 21  2  0
 21 22  1  0
 15  2  1  0
 14  6  1  0
 13  8  1  0
 21 16  1  0
  1 23  1  0
  3 24  1  0
  5 25  1  0
 11 26  1  0
 12 27  1  0
 17 28  1  0
 18 29  1  0
 19 30  1  0
 20 31  1  0
M  END
>  <Unnamed: 0>  (154) 
1053

>  <ID>  (154) 
TRAIN_1053

>  <Canonical_Smiles>  (154) 
Oc1cc(O)c2sc3nc(ccc3c2n1)c4ccccc4Cl

>  <Inhibition>  (154) 
12.9

>  <TDC_conf_true_inhibitor>  (154) 
0

>  <TDC_conf_non_inhibitor>  (154) 
1

>  <split>  (154) 
1

$$$$
154
     RDKit          3D

 48 52  0  0  0  0  0  0  0  0999 V2000
    7.6752    0.4525   -0.1437 C   0  0  0  0  0  0  0  0  0  0  0  0
    6.6495    1.3901    0.1578 O   0  0  0  0  0  0  0  0  0  0  0  0
    5.3651    0.9207    0.1597 C   0  0  0  0  0  0  0  0  0  0  0  0
    4.3949    1.8762    0.4721 C   0  0  0  0  0  0  0  0  0  0  0  0
    3.0396    1.5336    0.5094 C   0  0  0  0  0  0  0  0  0  0  0  0
    2.6364    0.2224    0.2317 C   0  0  0  0  0  0  0  0  0  0  0  0
    3.6120   -0.7351   -0.0784 C   0  0  0  0  0  0  0  0  0  0  0  0
    4.9688   -0.3881   -0.1153 C   0  0  0  0  0  0  0  0  0  0  0  0
    1.1840   -0.1685    0.2618 C   0  0  0  0  0  0  0  0  0  0  0  0
    0.8910   -1.4268    0.1969 N   0  0  0  0  0  0  0  0  0  0  0  0
   -0.4050   -1.9540    0.2119 C   0  0  0  0  0  0  0  0  0  0  0  0
   -0.5472   -3.1989    0.8258 C   0  0  0  0  0  0  0  0  0  0  0  0
   -1.7561   -3.8869    0.7874 C   0  0  0  0  0  0  0  0  0  0  0  0
   -2.8563   -3.3573    0.1079 C   0  0  0  0  0  0  0  0  0  0  0  0
   -4.0584   -4.0838    0.0743 C   0  0  0  0  0  0  0  0  0  0  0  0
   -5.1768   -3.5935   -0.5934 C   0  0  0  0  0  0  0  0  0  0  0  0
   -5.1053   -2.3688   -1.2385 C   0  0  0  0  0  0  0  0  0  0  0  0
   -3.9156   -1.6340   -1.2123 C   0  0  0  0  0  0  0  0  0  0  0  0
   -2.7538   -2.0983   -0.5390 C   0  0  0  0  0  0  0  0  0  0  0  0
   -1.5067   -1.3865   -0.4634 C   0  0  0  0  0  0  0  0  0  0  0  0
   -1.3806   -0.0794   -1.0124 N   0  0  0  0  0  0  0  0  0  0  0  0
   -0.8102    0.9113   -0.2385 C   0  0  0  0  0  0  0  0  0  0  0  0
    0.3161    0.8811    0.3945 N   0  0  0  0  0  0  0  0  0  0  0  0
   -1.5843    2.1912   -0.1178 C   0  0  0  0  0  0  0  0  0  0  0  0
   -2.9659    2.1637    0.1070 C   0  0  0  0  0  0  0  0  0  0  0  0
   -3.6768    3.3612    0.2040 C   0  0  0  0  0  0  0  0  0  0  0  0
   -3.0105    4.5811    0.0800 C   0  0  0  0  0  0  0  0  0  0  0  0
   -1.6318    4.6092   -0.1329 C   0  0  0  0  0  0  0  0  0  0  0  0
   -0.9160    3.4151   -0.2286 C   0  0  0  0  0  0  0  0  0  0  0  0
    7.7045   -0.3530    0.5975 H   0  0  0  0  0  0  0  0  0  0  0  0
    7.5605    0.0543   -1.1573 H   0  0  0  0  0  0  0  0  0  0  0  0
    8.6332    0.9797   -0.0999 H   0  0  0  0  0  0  0  0  0  0  0  0
    4.6965    2.8974    0.6922 H   0  0  0  0  0  0  0  0  0  0  0  0
    2.3089    2.2954    0.7660 H   0  0  0  0  0  0  0  0  0  0  0  0
    3.3211   -1.7603   -0.2975 H   0  0  0  0  0  0  0  0  0  0  0  0
    5.6843   -1.1651   -0.3621 H   0  0  0  0  0  0  0  0  0  0  0  0
    0.3088   -3.6428    1.3283 H   0  0  0  0  0  0  0  0  0  0  0  0
   -1.8194   -4.8535    1.2826 H   0  0  0  0  0  0  0  0  0  0  0  0
   -4.1322   -5.0486    0.5729 H   0  0  0  0  0  0  0  0  0  0  0  0
   -6.0979   -4.1699   -0.6107 H   0  0  0  0  0  0  0  0  0  0  0  0
   -5.9727   -1.9815   -1.7672 H   0  0  0  0  0  0  0  0  0  0  0  0
   -3.9225   -0.6884   -1.7445 H   0  0  0  0  0  0  0  0  0  0  0  0
   -2.1899    0.2062   -1.5407 H   0  0  0  0  0  0  0  0  0  0  0  0
   -3.4898    1.2217    0.2422 H   0  0  0  0  0  0  0  0  0  0  0  0
   -4.7480    3.3449    0.3892 H   0  0  0  0  0  0  0  0  0  0  0  0
   -3.5651    5.5132    0.1605 H   0  0  0  0  0  0  0  0  0  0  0  0
   -1.1134    5.5608   -0.2204 H   0  0  0  0  0  0  0  0  0  0  0  0
    0.1579    3.4399   -0.3945 H   0  0  0  0  0  0  0  0  0  0  0  0
  1  2  1  0
  2  3  1  0
  3  4  2  0
  4  5  1  0
  5  6  2  0
  6  7  1  0
  7  8  2  0
  6  9  1  0
  9 10  2  0
 10 11  1  0
 11 12  2  0
 12 13  1  0
 13 14  2  0
 14 15  1  0
 15 16  2  0
 16 17  1  0
 17 18  2  0
 18 19  1  0
 19 20  2  0
 20 21  1  0
 21 22  1  0
 22 23  2  0
 22 24  1  0
 24 25  2  0
 25 26  1  0
 26 27  2  0
 27 28  1  0
 28 29  2  0
  8  3  1  0
 23  9  1  0
 20 11  1  0
 19 14  1  0
 29 24  1  0
  1 30  1  0
  1 31  1  0
  1 32  1  0
  4 33  1  0
  5 34  1  0
  7 35  1  0
  8 36  1  0
 12 37  1  0
 13 38  1  0
 15 39  1  0
 16 40  1  0
 17 41  1  0
 18 42  1  0
 21 43  1  0
 25 44  1  0
 26 45  1  0
 27 46  1  0
 28 47  1  0
 29 48  1  0
M  END
>  <Unnamed: 0>  (155) 
1060

>  <ID>  (155) 
TRAIN_1060

>  <Canonical_Smiles>  (155) 
COc1ccc(cc1)C2=Nc3ccc4ccccc4c3NC(=N2)c5ccccc5

>  <Inhibition>  (155) 
15.4

>  <TDC_conf_true_inhibitor>  (155) 
0

>  <TDC_conf_non_inhibitor>  (155) 
1

>  <split>  (155) 
1

$$$$
155
     RDKit          3D

 55 57  0  0  0  0  0  0  0  0999 V2000
    0.0000    0.0000    0.0000 Br  0  0  0  0  0 15  0  0  0  0  0  0
   -5.8979    3.3780   -1.5977 C   0  0  0  0  0  0  0  0  0  0  0  0
   -5.3114    3.4364   -0.3020 O   0  0  0  0  0  0  0  0  0  0  0  0
   -4.2578    2.6072   -0.0536 C   0  0  0  0  0  0  0  0  0  0  0  0
   -3.6980    2.7397    1.2156 C   0  0  0  0  0  0  0  0  0  0  0  0
   -2.6050    1.9563    1.6023 C   0  0  0  0  0  0  0  0  0  0  0  0
   -2.0542    1.0059    0.7353 C   0  0  0  0  0  0  0  0  0  0  0  0
   -2.6152    0.8975   -0.5450 C   0  0  0  0  0  0  0  0  0  0  0  0
   -3.7096    1.6838   -0.9370 C   0  0  0  0  0  0  0  0  0  0  0  0
   -0.9610    0.2747    1.1119 N   0  0  0  0  0  4  0  0  0  0  0  0
   -0.7055   -1.0089    0.8615 C   0  0  0  0  0  0  0  0  0  0  0  0
   -1.7042   -1.9392    0.2666 C   0  0  0  0  0  0  0  0  0  0  0  0
   -1.5990   -3.3763    0.7591 C   0  0  0  0  0  0  0  0  0  0  0  0
   -0.5213   -4.1710    0.0282 C   0  0  0  0  0  0  0  0  0  0  0  0
    0.8088   -3.4405   -0.1204 C   0  0  0  0  0  0  0  0  0  0  0  0
    1.2032   -2.6861    1.1350 C   0  0  0  0  0  0  0  0  0  0  0  0
    0.5244   -1.3756    1.2216 N   0  0  0  0  0  0  0  0  0  0  0  0
    1.2536   -0.2191    1.7917 C   0  0  0  0  0  0  0  0  0  0  0  0
    1.6519   -0.6173    3.0896 O   0  0  0  0  0  0  0  0  0  0  0  0
    0.1694    0.8972    1.8400 C   0  0  0  0  0  0  0  0  0  0  0  0
    2.4314    0.1601    0.9078 C   0  0  0  0  0  0  0  0  0  0  0  0
    2.2697    0.3518   -0.4778 C   0  0  0  0  0  0  0  0  0  0  0  0
    3.3463    0.7292   -1.2909 C   0  0  0  0  0  0  0  0  0  0  0  0
    4.6094    0.9197   -0.7367 C   0  0  0  0  0  0  0  0  0  0  0  0
    5.7400    1.2921   -1.4020 O   0  0  0  0  0  0  0  0  0  0  0  0
    5.6302    1.5605   -2.7897 C   0  0  0  0  0  0  0  0  0  0  0  0
    6.8599    1.9204   -3.2324 F   0  0  0  0  0  0  0  0  0  0  0  0
    4.8171    2.6304   -2.9731 F   0  0  0  0  0  0  0  0  0  0  0  0
    4.7831    0.7272    0.6346 C   0  0  0  0  0  0  0  0  0  0  0  0
    3.7103    0.3557    1.4494 C   0  0  0  0  0  0  0  0  0  0  0  0
   -6.7035    4.1182   -1.6340 H   0  0  0  0  0  0  0  0  0  0  0  0
   -5.1698    3.6401   -2.3733 H   0  0  0  0  0  0  0  0  0  0  0  0
   -6.3404    2.3957   -1.7867 H   0  0  0  0  0  0  0  0  0  0  0  0
   -4.1191    3.4634    1.9113 H   0  0  0  0  0  0  0  0  0  0  0  0
   -2.2170    2.0960    2.6072 H   0  0  0  0  0  0  0  0  0  0  0  0
   -2.1852    0.2349   -1.2887 H   0  0  0  0  0  0  0  0  0  0  0  0
   -4.0972    1.5611   -1.9439 H   0  0  0  0  0  0  0  0  0  0  0  0
   -1.6294   -1.9139   -0.8271 H   0  0  0  0  0  0  0  0  0  0  0  0
   -2.7131   -1.6005    0.5341 H   0  0  0  0  0  0  0  0  0  0  0  0
   -2.5574   -3.8831    0.5966 H   0  0  0  0  0  0  0  0  0  0  0  0
   -1.4222   -3.3944    1.8418 H   0  0  0  0  0  0  0  0  0  0  0  0
   -0.8805   -4.4430   -0.9712 H   0  0  0  0  0  0  0  0  0  0  0  0
   -0.3651   -5.1168    0.5600 H   0  0  0  0  0  0  0  0  0  0  0  0
    0.7705   -2.7529   -0.9735 H   0  0  0  0  0  0  0  0  0  0  0  0
    1.5794   -4.1837   -0.3556 H   0  0  0  0  0  0  0  0  0  0  0  0
    2.2858   -2.5215    1.1087 H   0  0  0  0  0  0  0  0  0  0  0  0
    0.9860   -3.2558    2.0453 H   0  0  0  0  0  0  0  0  0  0  0  0
    0.8685   -0.9643    3.5461 H   0  0  0  0  0  0  0  0  0  0  0  0
   -0.1328    1.1101    2.8710 H   0  0  0  0  0  0  0  0  0  0  0  0
    0.4758    1.8211    1.3381 H   0  0  0  0  0  0  0  0  0  0  0  0
    1.2988    0.2157   -0.9488 H   0  0  0  0  0  0  0  0  0  0  0  0
    3.1559    0.8799   -2.3502 H   0  0  0  0  0  0  0  0  0  0  0  0
    5.2803    0.6995   -3.3695 H   0  0  0  0  0  0  0  0  0  0  0  0
    5.7665    0.8793    1.0774 H   0  0  0  0  0  0  0  0  0  0  0  0
    3.8962    0.2249    2.5144 H   0  0  0  0  0  0  0  0  0  0  0  0
  2  3  1  0
  3  4  1  0
  4  5  2  0
  5  6  1  0
  6  7  2  0
  7  8  1  0
  8  9  2  0
  7 10  1  0
 10 11  2  0
 11 12  1  0
 12 13  1  0
 13 14  1  0
 14 15  1  0
 15 16  1  0
 16 17  1  0
 17 18  1  0
 18 19  1  0
 18 20  1  0
 18 21  1  0
 21 22  2  0
 22 23  1  0
 23 24  2  0
 24 25  1  0
 25 26  1  0
 26 27  1  0
 26 28  1  0
 24 29  1  0
 29 30  2  0
  9  4  1  0
 20 10  1  0
 17 11  1  0
 30 21  1  0
  2 31  1  0
  2 32  1  0
  2 33  1  0
  5 34  1  0
  6 35  1  0
  8 36  1  0
  9 37  1  0
 12 38  1  0
 12 39  1  0
 13 40  1  0
 13 41  1  0
 14 42  1  0
 14 43  1  0
 15 44  1  0
 15 45  1  0
 16 46  1  0
 16 47  1  0
 19 48  1  0
 20 49  1  0
 20 50  1  0
 22 51  1  0
 23 52  1  0
 26 53  1  0
 29 54  1  0
 30 55  1  0
M  CHG  2   1  -1  10   1
M  END
>  <Unnamed: 0>  (156) 
1061

>  <ID>  (156) 
TRAIN_1061

>  <Canonical_Smiles>  (156) 
[Br-].COc1ccc(cc1)[N+]2=C3CCCCCN3C(O)(C2)c4ccc(OC(F)F)cc4

>  <Inhibition>  (156) 
10.2

>  <TDC_conf_true_inhibitor>  (156) 
0

>  <TDC_conf_non_inhibitor>  (156) 
1

>  <split>  (156) 
1

$$$$
156
     RDKit          3D

 60 64  0  0  0  0  0  0  0  0999 V2000
   -0.1269   -0.2856   -3.9867 C   0  0  0  0  0  0  0  0  0  0  0  0
    0.7156   -0.2191   -2.7449 C   0  0  0  0  0  0  0  0  0  0  0  0
    1.8770    0.5738   -2.7770 C   0  0  0  0  0  0  0  0  0  0  0  0
    2.7101    0.6858   -1.6604 C   0  0  0  0  0  0  0  0  0  0  0  0
    2.4130   -0.0131   -0.4893 C   0  0  0  0  0  0  0  0  0  0  0  0
    1.2630   -0.8021   -0.4341 C   0  0  0  0  0  0  0  0  0  0  0  0
    0.4046   -0.8873   -1.5464 C   0  0  0  0  0  0  0  0  0  0  0  0
   -1.0637   -1.8821   -1.3105 S   0  0  0  0  0  6  0  0  0  0  0  0
   -0.5857   -3.1959   -0.9283 O   0  0  0  0  0  0  0  0  0  0  0  0
   -1.9576   -1.7148   -2.4340 O   0  0  0  0  0  0  0  0  0  0  0  0
   -1.8032   -1.1746    0.0465 N   0  0  0  0  0  0  0  0  0  0  0  0
   -2.3268    0.2034   -0.1240 C   0  0  0  0  0  0  0  0  0  0  0  0
   -1.3416    1.2568    0.3293 C   0  0  0  0  0  0  0  0  0  0  0  0
   -0.8198    1.2326    1.6326 C   0  0  0  0  0  0  0  0  0  0  0  0
    0.1074    2.1908    2.0437 C   0  0  0  0  0  0  0  0  0  0  0  0
    0.5149    3.1891    1.1614 C   0  0  0  0  0  0  0  0  0  0  0  0
   -0.0097    3.2352   -0.1288 C   0  0  0  0  0  0  0  0  0  0  0  0
   -0.9367    2.2774   -0.5428 C   0  0  0  0  0  0  0  0  0  0  0  0
   -2.6855   -2.0691    0.8355 C   0  0  0  0  0  0  0  0  0  0  0  0
   -4.0252   -2.4149    0.2275 C   0  0  0  0  0  0  0  0  0  0  0  0
   -4.1419   -3.4685   -0.6908 C   0  0  0  0  0  0  0  0  0  0  0  0
   -5.3783   -3.7888   -1.2544 C   0  0  0  0  0  0  0  0  0  0  0  0
   -6.5147   -3.0639   -0.9042 C   0  0  0  0  0  0  0  0  0  0  0  0
   -6.4168   -2.0203    0.0130 C   0  0  0  0  0  0  0  0  0  0  0  0
   -5.1807   -1.6987    0.5777 C   0  0  0  0  0  0  0  0  0  0  0  0
    3.2971    0.1569    0.6969 C   0  0  0  0  0  0  0  0  0  0  0  0
    3.5193   -1.0606    1.5421 C   0  0  0  0  0  0  0  0  0  0  0  0
    4.2796   -0.9292    2.6370 C   0  0  0  0  0  0  0  0  0  0  0  0
    4.8333    0.3294    2.9402 C   0  0  0  0  0  0  0  0  0  0  0  0
    5.5849    0.7596    3.9296 N   0  0  0  0  0  0  0  0  0  0  0  0
    5.8371    2.0971    3.7121 N   0  0  0  0  0  0  0  0  0  0  0  0
    5.2347    2.4497    2.5924 C   0  0  0  0  0  0  0  0  0  0  0  0
    5.2204    3.7848    1.9624 C   0  0  0  0  0  0  0  0  0  0  0  0
    4.5818    1.3631    2.0635 N   0  0  0  0  0  0  0  0  0  0  0  0
    3.8278    1.3236    0.9249 N   0  0  0  0  0  0  0  0  0  0  0  0
   -0.2844   -1.3244   -4.2918 H   0  0  0  0  0  0  0  0  0  0  0  0
   -1.0838    0.2202   -3.8274 H   0  0  0  0  0  0  0  0  0  0  0  0
    0.3641    0.2138   -4.8296 H   0  0  0  0  0  0  0  0  0  0  0  0
    2.1427    1.1235   -3.6789 H   0  0  0  0  0  0  0  0  0  0  0  0
    3.5911    1.3220   -1.7127 H   0  0  0  0  0  0  0  0  0  0  0  0
    0.9873   -1.3143    0.4848 H   0  0  0  0  0  0  0  0  0  0  0  0
   -3.2361    0.3565    0.4671 H   0  0  0  0  0  0  0  0  0  0  0  0
   -2.6281    0.3762   -1.1634 H   0  0  0  0  0  0  0  0  0  0  0  0
   -1.1242    0.4565    2.3307 H   0  0  0  0  0  0  0  0  0  0  0  0
    0.5171    2.1578    3.0502 H   0  0  0  0  0  0  0  0  0  0  0  0
    1.2442    3.9300    1.4788 H   0  0  0  0  0  0  0  0  0  0  0  0
    0.3098    4.0148   -0.8159 H   0  0  0  0  0  0  0  0  0  0  0  0
   -1.3269    2.3260   -1.5575 H   0  0  0  0  0  0  0  0  0  0  0  0
   -2.1485   -2.9938    1.0810 H   0  0  0  0  0  0  0  0  0  0  0  0
   -2.8485   -1.6006    1.8159 H   0  0  0  0  0  0  0  0  0  0  0  0
   -3.2680   -4.0501   -0.9799 H   0  0  0  0  0  0  0  0  0  0  0  0
   -5.4511   -4.6037   -1.9703 H   0  0  0  0  0  0  0  0  0  0  0  0
   -7.4757   -3.3136   -1.3459 H   0  0  0  0  0  0  0  0  0  0  0  0
   -7.3045   -1.4570    0.2892 H   0  0  0  0  0  0  0  0  0  0  0  0
   -5.1316   -0.8861    1.2991 H   0  0  0  0  0  0  0  0  0  0  0  0
    3.0998   -2.0160    1.2542 H   0  0  0  0  0  0  0  0  0  0  0  0
    4.4922   -1.7670    3.2909 H   0  0  0  0  0  0  0  0  0  0  0  0
    4.2065    4.1977    1.9541 H   0  0  0  0  0  0  0  0  0  0  0  0
    5.8641    4.4769    2.5150 H   0  0  0  0  0  0  0  0  0  0  0  0
    5.5860    3.7344    0.9321 H   0  0  0  0  0  0  0  0  0  0  0  0
  1  2  1  0
  2  3  2  0
  3  4  1  0
  4  5  2  0
  5  6  1  0
  6  7  2  0
  7  8  1  0
  8  9  2  0
  8 10  2  0
  8 11  1  0
 11 12  1  0
 12 13  1  0
 13 14  2  0
 14 15  1  0
 15 16  2  0
 16 17  1  0
 17 18  2  0
 11 19  1  0
 19 20  1  0
 20 21  2  0
 21 22  1  0
 22 23  2  0
 23 24  1  0
 24 25  2  0
  5 26  1  0
 26 27  1  0
 27 28  2  0
 28 29  1  0
 29 30  2  0
 30 31  1  0
 31 32  2  0
 32 33  1  0
 32 34  1  0
 34 35  1  0
  7  2  1  0
 18 13  1  0
 25 20  1  0
 35 26  2  0
 34 29  1  0
  1 36  1  0
  1 37  1  0
  1 38  1  0
  3 39  1  0
  4 40  1  0
  6 41  1  0
 12 42  1  0
 12 43  1  0
 14 44  1  0
 15 45  1  0
 16 46  1  0
 17 47  1  0
 18 48  1  0
 19 49  1  0
 19 50  1  0
 21 51  1  0
 22 52  1  0
 23 53  1  0
 24 54  1  0
 25 55  1  0
 27 56  1  0
 28 57  1  0
 33 58  1  0
 33 59  1  0
 33 60  1  0
M  END
>  <Unnamed: 0>  (157) 
1063

>  <ID>  (157) 
TRAIN_1063

>  <Canonical_Smiles>  (157) 
Cc1ccc(cc1S(=O)(=O)N(Cc2ccccc2)Cc3ccccc3)c4ccc5nnc(C)n5n4

>  <Inhibition>  (157) 
63.0

>  <TDC_conf_true_inhibitor>  (157) 
1

>  <TDC_conf_non_inhibitor>  (157) 
0

>  <split>  (157) 
1

$$$$
157
     RDKit          3D

 55 58  0  0  0  0  0  0  0  0999 V2000
    6.0194   -2.0007    1.9971 C   0  0  0  0  0  0  0  0  0  0  0  0
    4.9028   -2.0943    1.0576 N   0  0  0  0  0  0  0  0  0  0  0  0
    3.6239   -2.0388    1.7595 C   0  0  0  0  0  0  0  0  0  0  0  0
    5.0124   -1.1501   -0.0717 C   0  0  0  0  0  0  0  0  0  0  0  0
    5.0948    0.3685    0.1996 C   0  0  0  0  0  0  0  0  0  0  0  0
    3.5056    1.1745    0.5801 S   0  0  0  0  0  0  0  0  0  0  0  0
    2.7054    1.0849   -0.9503 C   0  0  0  0  0  0  0  0  0  0  0  0
    3.2945    0.9510   -2.1240 N   0  0  0  0  0  0  0  0  0  0  0  0
    2.3176    0.9436   -3.0999 N   0  0  0  0  0  0  0  0  0  0  0  0
    1.1696    1.0712   -2.4825 C   0  0  0  0  0  0  0  0  0  0  0  0
   -0.2718    1.1265   -3.0549 C   0  0  0  0  0  0  0  0  0  0  0  0
   -0.7280    1.0610   -4.4008 C   0  0  0  0  0  0  0  0  0  0  0  0
    0.1691    0.9188   -5.5888 C   0  0  0  0  0  0  0  0  0  0  0  0
   -2.1175    1.1528   -4.4310 C   0  0  0  0  0  0  0  0  0  0  0  0
   -3.0216    1.1340   -5.6216 C   0  0  0  0  0  0  0  0  0  0  0  0
   -2.8013    1.3076   -2.8560 S   0  0  0  0  0  0  0  0  0  0  0  0
   -1.2903    1.2552   -2.1372 C   0  0  0  0  0  0  0  0  0  0  0  0
   -1.0382    1.3242   -0.7584 N   0  0  0  0  0  0  0  0  0  0  0  0
   -1.8031    1.4294    0.3912 C   0  0  0  0  0  0  0  0  0  0  0  0
   -3.5305    1.5377    0.4500 S   0  0  0  0  0  0  0  0  0  0  0  0
   -3.8702    1.2654    2.2239 C   0  0  0  0  0  0  0  0  0  0  0  0
   -3.7260   -0.2179    2.6111 C   0  0  0  0  0  0  0  0  0  0  0  0
   -4.0322   -0.4889    4.0342 N   0  0  0  0  0  0  0  0  0  0  0  0
   -5.4584   -0.3329    4.3302 C   0  0  0  0  0  0  0  0  0  0  0  0
   -3.5994   -1.8463    4.3891 C   0  0  0  0  0  0  0  0  0  0  0  0
   -1.0241    1.4359    1.4551 N   0  0  0  0  0  0  0  0  0  0  0  0
    0.2820    1.3350    1.0467 N   0  0  0  0  0  0  0  0  0  0  0  0
    0.2629    1.2739   -0.2591 C   0  0  0  0  0  0  0  0  0  0  0  0
    1.3469    1.1570   -1.1179 N   0  0  0  0  0  0  0  0  0  0  0  0
    5.9931   -2.8424    2.7017 H   0  0  0  0  0  0  0  0  0  0  0  0
    6.9796   -2.0626    1.4698 H   0  0  0  0  0  0  0  0  0  0  0  0
    6.0051   -1.0731    2.5826 H   0  0  0  0  0  0  0  0  0  0  0  0
    3.5224   -2.9048    2.4250 H   0  0  0  0  0  0  0  0  0  0  0  0
    3.5183   -1.1393    2.3748 H   0  0  0  0  0  0  0  0  0  0  0  0
    2.7845   -2.0911    1.0559 H   0  0  0  0  0  0  0  0  0  0  0  0
    4.2117   -1.3679   -0.7921 H   0  0  0  0  0  0  0  0  0  0  0  0
    5.9324   -1.4198   -0.6098 H   0  0  0  0  0  0  0  0  0  0  0  0
    5.5272    0.8658   -0.6776 H   0  0  0  0  0  0  0  0  0  0  0  0
    5.7822    0.5773    1.0262 H   0  0  0  0  0  0  0  0  0  0  0  0
   -0.3972    0.8234   -6.5207 H   0  0  0  0  0  0  0  0  0  0  0  0
    0.7951    0.0254   -5.4888 H   0  0  0  0  0  0  0  0  0  0  0  0
    0.8205    1.7947   -5.6779 H   0  0  0  0  0  0  0  0  0  0  0  0
   -2.8129    1.9946   -6.2657 H   0  0  0  0  0  0  0  0  0  0  0  0
   -4.0802    1.1701   -5.3444 H   0  0  0  0  0  0  0  0  0  0  0  0
   -2.8614    0.2204   -6.2030 H   0  0  0  0  0  0  0  0  0  0  0  0
   -3.2227    1.9013    2.8379 H   0  0  0  0  0  0  0  0  0  0  0  0
   -4.8982    1.6040    2.3847 H   0  0  0  0  0  0  0  0  0  0  0  0
   -4.3584   -0.8429    1.9654 H   0  0  0  0  0  0  0  0  0  0  0  0
   -2.6871   -0.5181    2.4216 H   0  0  0  0  0  0  0  0  0  0  0  0
   -6.0838   -0.9784    3.7032 H   0  0  0  0  0  0  0  0  0  0  0  0
   -5.7826    0.7043    4.1937 H   0  0  0  0  0  0  0  0  0  0  0  0
   -5.6610   -0.5741    5.3810 H   0  0  0  0  0  0  0  0  0  0  0  0
   -4.1260   -2.6125    3.8064 H   0  0  0  0  0  0  0  0  0  0  0  0
   -2.5224   -1.9662    4.2239 H   0  0  0  0  0  0  0  0  0  0  0  0
   -3.7721   -2.0385    5.4548 H   0  0  0  0  0  0  0  0  0  0  0  0
  1  2  1  0
  2  3  1  0
  2  4  1  0
  4  5  1  0
  5  6  1  0
  6  7  1  0
  7  8  2  0
  8  9  1  0
  9 10  2  0
 10 11  1  0
 11 12  1  0
 12 13  1  0
 12 14  2  0
 14 15  1  0
 14 16  1  0
 16 17  1  0
 17 18  1  0
 18 19  1  0
 19 20  1  0
 20 21  1  0
 21 22  1  0
 22 23  1  0
 23 24  1  0
 23 25  1  0
 19 26  2  0
 26 27  1  0
 27 28  2  0
 28 29  1  0
 29  7  1  0
 29 10  1  0
 17 11  2  0
 28 18  1  0
  1 30  1  0
  1 31  1  0
  1 32  1  0
  3 33  1  0
  3 34  1  0
  3 35  1  0
  4 36  1  0
  4 37  1  0
  5 38  1  0
  5 39  1  0
 13 40  1  0
 13 41  1  0
 13 42  1  0
 15 43  1  0
 15 44  1  0
 15 45  1  0
 21 46  1  0
 21 47  1  0
 22 48  1  0
 22 49  1  0
 24 50  1  0
 24 51  1  0
 24 52  1  0
 25 53  1  0
 25 54  1  0
 25 55  1  0
M  END
>  <Unnamed: 0>  (158) 
1064

>  <ID>  (158) 
TRAIN_1064

>  <Canonical_Smiles>  (158) 
CN(C)CCSc1nnc2c3c(C)c(C)sc3n4c(SCCN(C)C)nnc4n12

>  <Inhibition>  (158) 
21.9

>  <TDC_conf_true_inhibitor>  (158) 
0

>  <TDC_conf_non_inhibitor>  (158) 
1

>  <split>  (158) 
1

$$$$
158
     RDKit          3D

 36 39  0  0  0  0  0  0  0  0999 V2000
   -4.3210   -4.9207   -0.9349 Cl  0  0  0  0  0  0  0  0  0  0  0  0
   -3.5280   -3.4023   -0.7770 C   0  0  0  0  0  0  0  0  0  0  0  0
   -4.2798   -2.2414   -0.6144 C   0  0  0  0  0  0  0  0  0  0  0  0
   -3.6321   -1.0093   -0.4858 C   0  0  0  0  0  0  0  0  0  0  0  0
   -2.2321   -0.9318   -0.5083 C   0  0  0  0  0  0  0  0  0  0  0  0
   -1.4899   -2.1073   -0.6905 C   0  0  0  0  0  0  0  0  0  0  0  0
   -2.1365   -3.3408   -0.8196 C   0  0  0  0  0  0  0  0  0  0  0  0
   -1.5920    0.3659   -0.3738 C   0  0  0  0  0  0  0  0  0  0  0  0
   -2.1224    1.4998   -0.9424 N   0  0  0  0  0  0  0  0  0  0  0  0
   -1.3103    2.4849   -0.6230 C   0  0  0  0  0  0  0  0  0  0  0  0
   -1.4097    3.8076   -0.9534 N   0  0  0  0  0  0  0  0  0  0  0  0
   -0.5024    4.5908   -0.4575 C   0  0  0  0  0  0  0  0  0  0  0  0
    0.6260    4.1931    0.4277 C   0  0  0  0  0  0  0  0  0  0  0  0
    0.6896    2.8851    0.7075 C   0  0  0  0  0  0  0  0  0  0  0  0
   -0.2635    2.0197    0.1747 N   0  0  0  0  0  0  0  0  0  0  0  0
   -0.4241    0.6502    0.3159 C   0  0  0  0  0  0  0  0  0  0  0  0
    0.3952   -0.1153    1.0953 N   0  0  0  0  0  0  0  0  0  0  0  0
    1.7563   -0.3966    0.7960 C   0  0  0  0  0  0  0  0  0  0  0  0
    2.3993    0.0364   -0.3712 C   0  0  0  0  0  0  0  0  0  0  0  0
    3.7525   -0.2402   -0.5879 C   0  0  0  0  0  0  0  0  0  0  0  0
    4.4845   -0.9428    0.3658 C   0  0  0  0  0  0  0  0  0  0  0  0
    3.8651   -1.3679    1.5376 C   0  0  0  0  0  0  0  0  0  0  0  0
    2.5123   -1.0923    1.7517 C   0  0  0  0  0  0  0  0  0  0  0  0
   -5.3653   -2.2827   -0.5927 H   0  0  0  0  0  0  0  0  0  0  0  0
   -4.2246   -0.1025   -0.3710 H   0  0  0  0  0  0  0  0  0  0  0  0
   -0.4051   -2.0751   -0.7599 H   0  0  0  0  0  0  0  0  0  0  0  0
   -1.5497   -4.2440   -0.9641 H   0  0  0  0  0  0  0  0  0  0  0  0
   -0.5458    5.6664   -0.6979 H   0  0  0  0  0  0  0  0  0  0  0  0
    1.3161    4.9378    0.7955 H   0  0  0  0  0  0  0  0  0  0  0  0
    1.4533    2.4551    1.3428 H   0  0  0  0  0  0  0  0  0  0  0  0
   -0.0262   -0.9613    1.4841 H   0  0  0  0  0  0  0  0  0  0  0  0
    1.8555    0.5742   -1.1430 H   0  0  0  0  0  0  0  0  0  0  0  0
    4.2323    0.0923   -1.5051 H   0  0  0  0  0  0  0  0  0  0  0  0
    5.5366   -1.1569    0.1961 H   0  0  0  0  0  0  0  0  0  0  0  0
    4.4344   -1.9101    2.2883 H   0  0  0  0  0  0  0  0  0  0  0  0
    2.0514   -1.4179    2.6813 H   0  0  0  0  0  0  0  0  0  0  0  0
  1  2  1  0
  2  3  2  0
  3  4  1  0
  4  5  2  0
  5  6  1  0
  6  7  2  0
  5  8  1  0
  8  9  1  0
  9 10  2  0
 10 11  1  0
 11 12  2  0
 12 13  1  0
 13 14  2  0
 14 15  1  0
 15 16  1  0
 16 17  1  0
 17 18  1  0
 18 19  2  0
 19 20  1  0
 20 21  2  0
 21 22  1  0
 22 23  2  0
  7  2  1  0
 16  8  2  0
 15 10  1  0
 23 18  1  0
  3 24  1  0
  4 25  1  0
  6 26  1  0
  7 27  1  0
 12 28  1  0
 13 29  1  0
 14 30  1  0
 17 31  1  0
 19 32  1  0
 20 33  1  0
 21 34  1  0
 22 35  1  0
 23 36  1  0
M  END
>  <Unnamed: 0>  (159) 
1068

>  <ID>  (159) 
TRAIN_1068

>  <Canonical_Smiles>  (159) 
Clc1ccc(cc1)c2nc3ncccn3c2Nc4ccccc4

>  <Inhibition>  (159) 
28.4

>  <TDC_conf_true_inhibitor>  (159) 
0

>  <TDC_conf_non_inhibitor>  (159) 
1

>  <split>  (159) 
1

$$$$
159
     RDKit          3D

 62 65  0  0  0  0  0  0  0  0999 V2000
   -5.5215    2.4347   -2.3185 C   0  0  0  0  0  0  0  0  0  0  0  0
   -5.4602    1.3437   -1.2817 C   0  0  0  0  0  0  0  0  0  0  0  0
   -6.6693    0.8186   -0.8055 C   0  0  0  0  0  0  0  0  0  0  0  0
   -6.6757   -0.1898    0.1491 C   0  0  0  0  0  0  0  0  0  0  0  0
   -5.4737   -0.6947    0.6400 C   0  0  0  0  0  0  0  0  0  0  0  0
   -4.2469   -0.1951    0.1925 C   0  0  0  0  0  0  0  0  0  0  0  0
   -3.0116   -0.7147    0.6559 N   0  0  0  0  0  0  0  0  0  0  0  0
   -2.7980   -1.6950    1.6155 C   0  0  0  0  0  0  0  0  0  0  0  0
   -3.6529   -2.2626    2.2883 O   0  0  0  0  0  0  0  0  0  0  0  0
   -1.3172   -2.0513    1.7411 C   0  0  0  0  0  0  0  0  0  0  0  0
   -0.9877   -2.7606    3.0616 C   0  0  0  0  0  0  0  0  0  0  0  0
    0.3734   -3.4654    3.0263 C   0  0  0  0  0  0  0  0  0  0  0  0
    1.2470   -3.0063    1.8631 C   0  0  0  0  0  0  0  0  0  0  0  0
    0.5435   -3.2397    0.5823 N   0  0  0  0  0  0  0  0  0  0  0  0
   -0.9120   -2.9361    0.5619 C   0  0  0  0  0  0  0  0  0  0  0  0
    1.4167   -2.9411   -0.8377 S   0  0  0  0  0  6  0  0  0  0  0  0
    2.7810   -3.3882   -0.6555 O   0  0  0  0  0  0  0  0  0  0  0  0
    0.6140   -3.3414   -1.9730 O   0  0  0  0  0  0  0  0  0  0  0  0
    1.5576   -1.2198   -1.0060 C   0  0  0  0  0  0  0  0  0  0  0  0
    0.6744   -0.3711   -1.6374 C   0  0  0  0  0  0  0  0  0  0  0  0
    1.1792    0.8972   -1.5346 N   0  0  0  0  0  0  0  0  0  0  0  0
    2.3922    0.8899   -0.8689 C   0  0  0  0  0  0  0  0  0  0  0  0
    2.6169   -0.4254   -0.4944 C   0  0  0  0  0  0  0  0  0  0  0  0
    3.1203    2.1298   -0.6623 C   0  0  0  0  0  0  0  0  0  0  0  0
    2.5257    3.2070   -0.7320 O   0  0  0  0  0  0  0  0  0  0  0  0
    4.4795    2.0910   -0.4123 N   0  0  0  0  0  0  0  0  0  0  0  0
    5.2125    3.3260   -0.1822 C   0  0  0  0  0  0  0  0  0  0  0  0
    6.6337    2.8771    0.1206 C   0  0  0  0  0  0  0  0  0  0  0  0
    6.7688    1.6188   -0.7252 C   0  0  0  0  0  0  0  0  0  0  0  0
    5.3965    0.9706   -0.5848 C   0  0  0  0  0  0  0  0  0  0  0  0
   -4.2332    0.8501   -0.7705 C   0  0  0  0  0  0  0  0  0  0  0  0
   -2.9222    1.4217   -1.2585 C   0  0  0  0  0  0  0  0  0  0  0  0
   -5.1439    3.3754   -1.9028 H   0  0  0  0  0  0  0  0  0  0  0  0
   -6.5475    2.6111   -2.6570 H   0  0  0  0  0  0  0  0  0  0  0  0
   -4.9367    2.1562   -3.1999 H   0  0  0  0  0  0  0  0  0  0  0  0
   -7.6200    1.1934   -1.1782 H   0  0  0  0  0  0  0  0  0  0  0  0
   -7.6179   -0.5903    0.5129 H   0  0  0  0  0  0  0  0  0  0  0  0
   -5.5356   -1.4895    1.3753 H   0  0  0  0  0  0  0  0  0  0  0  0
   -2.1836   -0.3019    0.2490 H   0  0  0  0  0  0  0  0  0  0  0  0
   -0.7464   -1.1119    1.7120 H   0  0  0  0  0  0  0  0  0  0  0  0
   -1.7525   -3.5045    3.3234 H   0  0  0  0  0  0  0  0  0  0  0  0
   -1.0033   -2.0216    3.8746 H   0  0  0  0  0  0  0  0  0  0  0  0
    0.8978   -3.3002    3.9754 H   0  0  0  0  0  0  0  0  0  0  0  0
    0.2109   -4.5505    2.9467 H   0  0  0  0  0  0  0  0  0  0  0  0
    1.4941   -1.9443    1.9747 H   0  0  0  0  0  0  0  0  0  0  0  0
    2.1810   -3.5797    1.8814 H   0  0  0  0  0  0  0  0  0  0  0  0
   -1.1976   -2.4592   -0.3803 H   0  0  0  0  0  0  0  0  0  0  0  0
   -1.4542   -3.8896    0.5955 H   0  0  0  0  0  0  0  0  0  0  0  0
   -0.2455   -0.5720   -2.1709 H   0  0  0  0  0  0  0  0  0  0  0  0
    0.7644    1.7421   -1.9118 H   0  0  0  0  0  0  0  0  0  0  0  0
    3.4555   -0.8030    0.0748 H   0  0  0  0  0  0  0  0  0  0  0  0
    5.1712    3.9259   -1.0986 H   0  0  0  0  0  0  0  0  0  0  0  0
    4.7621    3.8944    0.6365 H   0  0  0  0  0  0  0  0  0  0  0  0
    7.3789    3.6409   -0.1230 H   0  0  0  0  0  0  0  0  0  0  0  0
    6.7321    2.6229    1.1825 H   0  0  0  0  0  0  0  0  0  0  0  0
    7.5816    0.9643   -0.4005 H   0  0  0  0  0  0  0  0  0  0  0  0
    6.9475    1.8948   -1.7711 H   0  0  0  0  0  0  0  0  0  0  0  0
    5.1357    0.3651   -1.4568 H   0  0  0  0  0  0  0  0  0  0  0  0
    5.3550    0.3613    0.3246 H   0  0  0  0  0  0  0  0  0  0  0  0
   -2.3810    0.6654   -1.8352 H   0  0  0  0  0  0  0  0  0  0  0  0
   -3.0431    2.2974   -1.9009 H   0  0  0  0  0  0  0  0  0  0  0  0
   -2.3095    1.7508   -0.4094 H   0  0  0  0  0  0  0  0  0  0  0  0
  1  2  1  0
  2  3  2  0
  3  4  1  0
  4  5  2  0
  5  6  1  0
  6  7  1  0
  7  8  1  0
  8  9  2  0
  8 10  1  0
 10 11  1  0
 11 12  1  0
 12 13  1  0
 13 14  1  0
 14 15  1  0
 14 16  1  0
 16 17  2  0
 16 18  2  0
 16 19  1  0
 19 20  2  0
 20 21  1  0
 21 22  1  0
 22 23  2  0
 22 24  1  0
 24 25  2  0
 24 26  1  0
 26 27  1  0
 27 28  1  0
 28 29  1  0
 29 30  1  0
  6 31  2  0
 31 32  1  0
 31  2  1  0
 15 10  1  0
 23 19  1  0
 30 26  1  0
  1 33  1  0
  1 34  1  0
  1 35  1  0
  3 36  1  0
  4 37  1  0
  5 38  1  0
  7 39  1  0
 10 40  1  0
 11 41  1  0
 11 42  1  0
 12 43  1  0
 12 44  1  0
 13 45  1  0
 13 46  1  0
 15 47  1  0
 15 48  1  0
 20 49  1  0
 21 50  1  0
 23 51  1  0
 27 52  1  0
 27 53  1  0
 28 54  1  0
 28 55  1  0
 29 56  1  0
 29 57  1  0
 30 58  1  0
 30 59  1  0
 32 60  1  0
 32 61  1  0
 32 62  1  0
M  END
>  <Unnamed: 0>  (160) 
1082

>  <ID>  (160) 
TRAIN_1082

>  <Canonical_Smiles>  (160) 
Cc1cccc(NC(=O)C2CCCN(C2)S(=O)(=O)c3c[nH]c(c3)C(=O)N4CCCC4)c1C

>  <Inhibition>  (160) 
35.5

>  <TDC_conf_true_inhibitor>  (160) 
1

>  <TDC_conf_non_inhibitor>  (160) 
0

>  <split>  (160) 
1

$$$$
160
     RDKit          3D

 45 48  0  0  0  0  0  0  0  0999 V2000
   -5.6315   -1.9589    1.3295 C   0  0  0  0  0  0  0  0  0  0  0  0
   -5.0841   -1.2765    0.0751 C   0  0  0  0  0  0  0  0  0  0  0  0
   -6.2224   -0.7629   -0.8100 C   0  0  0  0  0  0  0  0  0  0  0  0
   -4.1002   -0.1735    0.4203 C   0  0  0  0  0  0  0  0  0  0  0  0
   -4.4854    0.9572    1.1608 C   0  0  0  0  0  0  0  0  0  0  0  0
   -3.5657    1.9678    1.4555 C   0  0  0  0  0  0  0  0  0  0  0  0
   -2.2494    1.8478    1.0170 C   0  0  0  0  0  0  0  0  0  0  0  0
   -1.3229    2.8626    1.2912 N   0  0  0  0  0  0  0  0  0  0  0  0
   -0.0147    2.8235    0.8848 C   0  0  0  0  0  0  0  0  0  0  0  0
    0.7443    3.7634    1.1098 O   0  0  0  0  0  0  0  0  0  0  0  0
    0.4469    1.5909    0.1664 C   0  0  0  0  0  0  0  0  0  0  0  0
   -0.4395    0.6169   -0.1175 C   0  0  0  0  0  0  0  0  0  0  0  0
   -1.8384    0.7229    0.2927 C   0  0  0  0  0  0  0  0  0  0  0  0
   -2.7653   -0.2811   -0.0083 C   0  0  0  0  0  0  0  0  0  0  0  0
    1.9133    1.5511   -0.1782 C   0  0  0  0  0  0  0  0  0  0  0  0
    2.3886    0.1614   -0.1583 N   0  0  0  0  0  0  0  0  0  0  0  0
    3.7201   -0.1206   -0.4989 C   0  0  0  0  0  0  0  0  0  0  0  0
    4.4744    0.6647   -1.3811 C   0  0  0  0  0  0  0  0  0  0  0  0
    5.7843    0.3258   -1.7572 C   0  0  0  0  0  0  0  0  0  0  0  0
    6.3098   -0.8555   -1.2325 C   0  0  0  0  0  0  0  0  0  0  0  0
    7.5283   -1.4626   -1.3851 N   0  0  0  0  0  0  0  0  0  0  0  0
    7.6567   -2.6176   -0.7058 N   0  0  0  0  0  0  0  0  0  0  0  0
    6.4723   -2.7537   -0.1023 C   0  0  0  0  0  0  0  0  0  0  0  0
    5.5893   -1.6884   -0.3881 C   0  0  0  0  0  0  0  0  0  0  0  0
    4.2751   -1.3294   -0.0344 C   0  0  0  0  0  0  0  0  0  0  0  0
   -4.8181   -2.2994    1.9764 H   0  0  0  0  0  0  0  0  0  0  0  0
   -6.2347   -2.8309    1.0607 H   0  0  0  0  0  0  0  0  0  0  0  0
   -6.2641   -1.2863    1.9174 H   0  0  0  0  0  0  0  0  0  0  0  0
   -4.5522   -2.0456   -0.5034 H   0  0  0  0  0  0  0  0  0  0  0  0
   -5.8313   -0.2484   -1.6945 H   0  0  0  0  0  0  0  0  0  0  0  0
   -6.8708   -0.0590   -0.2775 H   0  0  0  0  0  0  0  0  0  0  0  0
   -6.8447   -1.5951   -1.1523 H   0  0  0  0  0  0  0  0  0  0  0  0
   -5.5100    1.0637    1.5114 H   0  0  0  0  0  0  0  0  0  0  0  0
   -3.8877    2.8356    2.0273 H   0  0  0  0  0  0  0  0  0  0  0  0
   -1.6069    3.6893    1.7961 H   0  0  0  0  0  0  0  0  0  0  0  0
   -0.1334   -0.2791   -0.6523 H   0  0  0  0  0  0  0  0  0  0  0  0
   -2.4487   -1.1536   -0.5821 H   0  0  0  0  0  0  0  0  0  0  0  0
    2.0344    2.0050   -1.1699 H   0  0  0  0  0  0  0  0  0  0  0  0
    2.5041    2.1239    0.5472 H   0  0  0  0  0  0  0  0  0  0  0  0
    2.1499   -0.2856    0.7234 H   0  0  0  0  0  0  0  0  0  0  0  0
    4.0583    1.5698   -1.8108 H   0  0  0  0  0  0  0  0  0  0  0  0
    6.3509    0.9576   -2.4337 H   0  0  0  0  0  0  0  0  0  0  0  0
    8.3201   -1.1305   -1.9251 H   0  0  0  0  0  0  0  0  0  0  0  0
    6.2989   -3.6188    0.5260 H   0  0  0  0  0  0  0  0  0  0  0  0
    3.7023   -1.9880    0.6112 H   0  0  0  0  0  0  0  0  0  0  0  0
  1  2  1  0
  2  3  1  0
  2  4  1  0
  4  5  2  0
  5  6  1  0
  6  7  2  0
  7  8  1  0
  8  9  1  0
  9 10  2  0
  9 11  1  0
 11 12  2  0
 12 13  1  0
 13 14  2  0
 11 15  1  0
 15 16  1  0
 16 17  1  0
 17 18  2  0
 18 19  1  0
 19 20  2  0
 20 21  1  0
 21 22  1  0
 22 23  2  0
 23 24  1  0
 24 25  2  0
 14  4  1  0
 13  7  1  0
 25 17  1  0
 24 20  1  0
  1 26  1  0
  1 27  1  0
  1 28  1  0
  2 29  1  0
  3 30  1  0
  3 31  1  0
  3 32  1  0
  5 33  1  0
  6 34  1  0
  8 35  1  0
 12 36  1  0
 14 37  1  0
 15 38  1  0
 15 39  1  0
 16 40  1  0
 18 41  1  0
 19 42  1  0
 21 43  1  0
 23 44  1  0
 25 45  1  0
M  END
>  <Unnamed: 0>  (161) 
1090

>  <ID>  (161) 
TRAIN_1090

>  <Canonical_Smiles>  (161) 
CC(C)c1ccc2NC(=O)C(=Cc2c1)CNc3ccc4[nH]ncc4c3

>  <Inhibition>  (161) 
86.9

>  <TDC_conf_true_inhibitor>  (161) 
1

>  <TDC_conf_non_inhibitor>  (161) 
0

>  <split>  (161) 
1

$$$$
161
     RDKit          3D

 63 68  0  0  0  0  0  0  0  0999 V2000
    3.0055    3.9235   -0.5188 C   0  0  0  0  0  0  0  0  0  0  0  0
    1.9979    2.8297   -0.3081 C   0  0  0  0  0  0  0  0  0  0  0  0
    0.6311    3.0689   -0.5657 C   0  0  0  0  0  0  0  0  0  0  0  0
   -0.3455    2.0821   -0.3473 C   0  0  0  0  0  0  0  0  0  0  0  0
    0.1046    0.8600    0.1281 C   0  0  0  0  0  0  0  0  0  0  0  0
   -0.6924   -0.2653    0.3893 N   0  0  0  0  0  0  0  0  0  0  0  0
    0.1216   -1.3565    0.7314 C   0  0  0  0  0  0  0  0  0  0  0  0
   -0.2211   -2.5159    0.9294 O   0  0  0  0  0  0  0  0  0  0  0  0
    1.6121   -0.8237    0.8524 C   0  0  0  0  0  0  0  0  0  0  0  0
    2.0401   -0.9406    2.2169 N   0  0  0  0  0  0  0  0  0  0  0  0
    3.3545   -0.8996    2.5789 C   0  0  0  0  0  0  0  0  0  0  0  0
    3.6949   -0.6226    3.7220 O   0  0  0  0  0  0  0  0  0  0  0  0
    4.3307   -1.2448    1.5298 C   0  0  0  0  0  0  0  0  0  0  0  0
    5.7002   -1.2661    1.8122 C   0  0  0  0  0  0  0  0  0  0  0  0
    6.5993   -1.6597    0.8228 C   0  0  0  0  0  0  0  0  0  0  0  0
    6.1260   -2.0411   -0.4327 C   0  0  0  0  0  0  0  0  0  0  0  0
    4.7549   -2.0177   -0.7052 C   0  0  0  0  0  0  0  0  0  0  0  0
    3.8435   -1.5897    0.2645 C   0  0  0  0  0  0  0  0  0  0  0  0
    2.4685   -1.6200   -0.0296 N   0  0  0  0  0  0  0  0  0  0  0  0
    1.4518    0.5975    0.3858 C   0  0  0  0  0  0  0  0  0  0  0  0
    2.4067    1.5842    0.1847 C   0  0  0  0  0  0  0  0  0  0  0  0
   -2.1408   -0.2753    0.0625 C   0  0  0  0  0  0  0  0  0  0  0  0
   -2.3523   -0.8940   -1.3474 C   0  0  0  0  0  0  0  0  0  0  0  0
   -2.6528   -2.3931   -1.4307 C   0  0  0  0  0  0  0  0  0  0  0  0
   -4.1324   -2.7217   -1.2390 C   0  0  0  0  0  0  0  0  0  0  0  0
   -4.6232   -2.6564    0.2013 C   0  0  0  0  0  0  0  0  0  0  0  0
   -4.4013   -1.3146    0.8936 C   0  0  0  0  0  0  0  0  0  0  0  0
   -2.9237   -1.0344    1.1802 C   0  0  0  0  0  0  0  0  0  0  0  0
   -2.6608    1.2077    0.0874 C   0  0  0  0  0  0  0  0  0  0  0  0
   -1.8164    2.2842   -0.6532 C   0  0  0  0  0  0  0  0  0  0  0  0
   -2.3144    3.6612   -0.1474 C   0  0  0  0  0  0  0  0  0  0  0  0
   -2.0322    2.2449   -2.1773 C   0  0  0  0  0  0  0  0  0  0  0  0
    3.9887    3.5082   -0.7642 H   0  0  0  0  0  0  0  0  0  0  0  0
    2.7099    4.5708   -1.3511 H   0  0  0  0  0  0  0  0  0  0  0  0
    3.0936    4.5294    0.3884 H   0  0  0  0  0  0  0  0  0  0  0  0
    0.3413    4.0432   -0.9550 H   0  0  0  0  0  0  0  0  0  0  0  0
    1.4049   -0.6215    2.9342 H   0  0  0  0  0  0  0  0  0  0  0  0
    6.0605   -0.9937    2.8014 H   0  0  0  0  0  0  0  0  0  0  0  0
    7.6654   -1.6833    1.0345 H   0  0  0  0  0  0  0  0  0  0  0  0
    6.8244   -2.3615   -1.2022 H   0  0  0  0  0  0  0  0  0  0  0  0
    4.3990   -2.3187   -1.6878 H   0  0  0  0  0  0  0  0  0  0  0  0
    2.1514   -2.5908    0.0233 H   0  0  0  0  0  0  0  0  0  0  0  0
    3.4561    1.3900    0.3866 H   0  0  0  0  0  0  0  0  0  0  0  0
   -1.4498   -0.7200   -1.9477 H   0  0  0  0  0  0  0  0  0  0  0  0
   -3.1614   -0.3662   -1.8677 H   0  0  0  0  0  0  0  0  0  0  0  0
   -2.0304   -2.9775   -0.7487 H   0  0  0  0  0  0  0  0  0  0  0  0
   -2.3822   -2.7220   -2.4429 H   0  0  0  0  0  0  0  0  0  0  0  0
   -4.3086   -3.7406   -1.6066 H   0  0  0  0  0  0  0  0  0  0  0  0
   -4.7460   -2.0632   -1.8662 H   0  0  0  0  0  0  0  0  0  0  0  0
   -4.1484   -3.4554    0.7845 H   0  0  0  0  0  0  0  0  0  0  0  0
   -5.6983   -2.8756    0.2058 H   0  0  0  0  0  0  0  0  0  0  0  0
   -4.9251   -1.3574    1.8574 H   0  0  0  0  0  0  0  0  0  0  0  0
   -4.8740   -0.5082    0.3255 H   0  0  0  0  0  0  0  0  0  0  0  0
   -2.4437   -1.9837    1.4343 H   0  0  0  0  0  0  0  0  0  0  0  0
   -2.8592   -0.4480    2.1076 H   0  0  0  0  0  0  0  0  0  0  0  0
   -2.7073    1.5145    1.1441 H   0  0  0  0  0  0  0  0  0  0  0  0
   -3.6962    1.2537   -0.2736 H   0  0  0  0  0  0  0  0  0  0  0  0
   -2.0950    3.7987    0.9181 H   0  0  0  0  0  0  0  0  0  0  0  0
   -3.3983    3.7579   -0.2817 H   0  0  0  0  0  0  0  0  0  0  0  0
   -1.8511    4.4949   -0.6864 H   0  0  0  0  0  0  0  0  0  0  0  0
   -1.5781    1.3668   -2.6434 H   0  0  0  0  0  0  0  0  0  0  0  0
   -1.5779    3.1165   -2.6647 H   0  0  0  0  0  0  0  0  0  0  0  0
   -3.0991    2.2519   -2.4266 H   0  0  0  0  0  0  0  0  0  0  0  0
  1  2  1  0
  2  3  2  0
  3  4  1  0
  4  5  2  0
  5  6  1  0
  6  7  1  0
  7  8  2  0
  7  9  1  0
  9 10  1  0
 10 11  1  0
 11 12  2  0
 11 13  1  0
 13 14  2  0
 14 15  1  0
 15 16  2  0
 16 17  1  0
 17 18  2  0
 18 19  1  0
  9 20  1  0
 20 21  2  0
  6 22  1  0
 22 23  1  0
 23 24  1  0
 24 25  1  0
 25 26  1  0
 26 27  1  0
 27 28  1  0
 22 29  1  0
 29 30  1  0
 30 31  1  0
 30 32  1  0
 21  2  1  0
 30  4  1  0
 20  5  1  0
 19  9  1  0
 18 13  1  0
 28 22  1  0
  1 33  1  0
  1 34  1  0
  1 35  1  0
  3 36  1  0
 10 37  1  0
 14 38  1  0
 15 39  1  0
 16 40  1  0
 17 41  1  0
 19 42  1  0
 21 43  1  0
 23 44  1  0
 23 45  1  0
 24 46  1  0
 24 47  1  0
 25 48  1  0
 25 49  1  0
 26 50  1  0
 26 51  1  0
 27 52  1  0
 27 53  1  0
 28 54  1  0
 28 55  1  0
 29 56  1  0
 29 57  1  0
 31 58  1  0
 31 59  1  0
 31 60  1  0
 32 61  1  0
 32 62  1  0
 32 63  1  0
M  END
>  <Unnamed: 0>  (162) 
1096

>  <ID>  (162) 
TRAIN_1096

>  <Canonical_Smiles>  (162) 
Cc1cc2c3N(C(=O)C4(NC(=O)c5ccccc5N4)c3c1)C6(CCCCCC6)CC2(C)C

>  <Inhibition>  (162) 
63.7

>  <TDC_conf_true_inhibitor>  (162) 
1

>  <TDC_conf_non_inhibitor>  (162) 
0

>  <split>  (162) 
1

$$$$
162
     RDKit          3D

 53 56  0  0  0  0  0  0  0  0999 V2000
    8.2550    1.0657   -2.0482 C   0  0  0  0  0  0  0  0  0  0  0  0
    7.4409    1.7718   -1.1207 O   0  0  0  0  0  0  0  0  0  0  0  0
    6.2741    1.1689   -0.7423 C   0  0  0  0  0  0  0  0  0  0  0  0
    5.5082    1.8920    0.1698 C   0  0  0  0  0  0  0  0  0  0  0  0
    4.2882    1.3897    0.6427 C   0  0  0  0  0  0  0  0  0  0  0  0
    3.7917    0.1545    0.2090 C   0  0  0  0  0  0  0  0  0  0  0  0
    4.5861   -0.5635   -0.7007 C   0  0  0  0  0  0  0  0  0  0  0  0
    5.8088   -0.0677   -1.1756 C   0  0  0  0  0  0  0  0  0  0  0  0
    2.5822   -0.4006    0.6556 N   0  0  0  0  0  0  0  0  0  0  0  0
    1.5945   -0.6194   -0.4272 C   0  0  0  0  0  0  0  0  0  0  0  0
    0.3923   -1.4580    0.0779 C   0  0  0  0  0  0  0  0  0  0  0  0
   -0.2581   -0.8974    1.2848 N   0  0  0  0  0  0  0  0  0  0  0  0
   -1.3283   -1.7817    1.8133 C   0  0  0  0  0  0  0  0  0  0  0  0
   -2.6242   -1.9904    0.9702 C   0  0  0  0  0  0  0  0  0  0  0  0
   -2.3282   -2.7154   -0.2301 O   0  0  0  0  0  0  0  0  0  0  0  0
   -3.5009   -0.7897    0.6480 C   0  0  0  0  0  0  0  0  0  0  0  0
   -3.1092    0.5458    0.8718 C   0  0  0  0  0  0  0  0  0  0  0  0
   -3.9536    1.6176    0.5535 C   0  0  0  0  0  0  0  0  0  0  0  0
   -5.2019    1.3473    0.0313 C   0  0  0  0  0  0  0  0  0  0  0  0
   -6.1489    2.3205   -0.3787 N   0  0  0  0  0  0  0  0  0  0  0  0
   -7.3447    1.5081   -0.6926 C   0  0  0  0  0  0  0  0  0  0  0  0
   -6.9295    0.0379   -0.8719 C   0  0  0  0  0  0  0  0  0  0  0  0
   -5.5983    0.0389   -0.2115 C   0  0  0  0  0  0  0  0  0  0  0  0
   -4.7721   -1.0326    0.0876 C   0  0  0  0  0  0  0  0  0  0  0  0
    0.7792   -0.7026    2.3295 C   0  0  0  0  0  0  0  0  0  0  0  0
    1.9550    0.1816    1.8577 C   0  0  0  0  0  0  0  0  0  0  0  0
    9.1407    1.6764   -2.2481 H   0  0  0  0  0  0  0  0  0  0  0  0
    7.7324    0.9162   -2.9987 H   0  0  0  0  0  0  0  0  0  0  0  0
    8.5955    0.1129   -1.6294 H   0  0  0  0  0  0  0  0  0  0  0  0
    5.8604    2.8588    0.5205 H   0  0  0  0  0  0  0  0  0  0  0  0
    3.7345    2.0036    1.3456 H   0  0  0  0  0  0  0  0  0  0  0  0
    4.2656   -1.5484   -1.0322 H   0  0  0  0  0  0  0  0  0  0  0  0
    6.3684   -0.6809   -1.8729 H   0  0  0  0  0  0  0  0  0  0  0  0
    2.0351   -1.1538   -1.2765 H   0  0  0  0  0  0  0  0  0  0  0  0
    1.2338    0.3498   -0.7974 H   0  0  0  0  0  0  0  0  0  0  0  0
   -0.3227   -1.4957   -0.7480 H   0  0  0  0  0  0  0  0  0  0  0  0
    0.7362   -2.4821    0.2743 H   0  0  0  0  0  0  0  0  0  0  0  0
   -0.8975   -2.7722    2.0153 H   0  0  0  0  0  0  0  0  0  0  0  0
   -1.6531   -1.3741    2.7804 H   0  0  0  0  0  0  0  0  0  0  0  0
   -3.2484   -2.6655    1.5716 H   0  0  0  0  0  0  0  0  0  0  0  0
   -2.4844   -2.1031   -0.9699 H   0  0  0  0  0  0  0  0  0  0  0  0
   -2.1369    0.7812    1.2959 H   0  0  0  0  0  0  0  0  0  0  0  0
   -3.6366    2.6401    0.7298 H   0  0  0  0  0  0  0  0  0  0  0  0
   -5.7793    2.7909   -1.2042 H   0  0  0  0  0  0  0  0  0  0  0  0
   -8.0479    1.5964    0.1454 H   0  0  0  0  0  0  0  0  0  0  0  0
   -7.8531    1.8916   -1.5839 H   0  0  0  0  0  0  0  0  0  0  0  0
   -6.8268   -0.2122   -1.9328 H   0  0  0  0  0  0  0  0  0  0  0  0
   -7.6412   -0.6417   -0.3951 H   0  0  0  0  0  0  0  0  0  0  0  0
   -5.1001   -2.0489   -0.1169 H   0  0  0  0  0  0  0  0  0  0  0  0
    1.1744   -1.6743    2.6557 H   0  0  0  0  0  0  0  0  0  0  0  0
    0.3265   -0.2207    3.2046 H   0  0  0  0  0  0  0  0  0  0  0  0
    1.5828    1.1929    1.6480 H   0  0  0  0  0  0  0  0  0  0  0  0
    2.6832    0.2413    2.6759 H   0  0  0  0  0  0  0  0  0  0  0  0
  1  2  1  0
  2  3  1  0
  3  4  2  0
  4  5  1  0
  5  6  2  0
  6  7  1  0
  7  8  2  0
  6  9  1  0
  9 10  1  0
 10 11  1  0
 11 12  1  0
 12 13  1  0
 13 14  1  0
 14 15  1  0
 14 16  1  0
 16 17  2  0
 17 18  1  0
 18 19  2  0
 19 20  1  0
 20 21  1  0
 21 22  1  0
 22 23  1  0
 23 24  2  0
 12 25  1  0
 25 26  1  0
  8  3  1  0
 26  9  1  0
 24 16  1  0
 23 19  1  0
  1 27  1  0
  1 28  1  0
  1 29  1  0
  4 30  1  0
  5 31  1  0
  7 32  1  0
  8 33  1  0
 10 34  1  0
 10 35  1  0
 11 36  1  0
 11 37  1  0
 13 38  1  0
 13 39  1  0
 14 40  1  0
 15 41  1  0
 17 42  1  0
 18 43  1  0
 20 44  1  0
 21 45  1  0
 21 46  1  0
 22 47  1  0
 22 48  1  0
 24 49  1  0
 25 50  1  0
 25 51  1  0
 26 52  1  0
 26 53  1  0
M  END
>  <Unnamed: 0>  (163) 
1099

>  <ID>  (163) 
TRAIN_1099

>  <Canonical_Smiles>  (163) 
COc1ccc(cc1)N2CCN(CC(O)c3ccc4NCCc4c3)CC2

>  <Inhibition>  (163) 
22.3

>  <TDC_conf_true_inhibitor>  (163) 
1

>  <TDC_conf_non_inhibitor>  (163) 
0

>  <split>  (163) 
1

$$$$
163
     RDKit          3D

 49 53  0  0  0  0  0  0  0  0999 V2000
   -3.1430   -1.7199   -2.2409 O   0  0  0  0  0  0  0  0  0  0  0  0
   -3.6731   -0.9354   -1.4658 C   0  0  0  0  0  0  0  0  0  0  0  0
   -3.0308   -0.0496   -0.6207 N   0  0  0  0  0  0  0  0  0  0  0  0
   -3.6774    0.9851    0.2074 C   0  0  0  0  0  0  0  0  0  0  0  0
   -2.5700    1.7722    0.9209 C   0  0  0  0  0  0  0  0  0  0  0  0
   -1.3339    1.1118    0.4085 C   0  0  0  0  0  0  0  0  0  0  0  0
   -0.0218    1.4213    0.7333 C   0  0  0  0  0  0  0  0  0  0  0  0
    1.0131    0.6719    0.1549 C   0  0  0  0  0  0  0  0  0  0  0  0
    2.4473    0.9549    0.5277 C   0  0  0  0  0  0  0  0  0  0  0  0
    2.7716    0.3126    1.7969 N   0  0  0  0  0  0  0  0  0  0  0  0
    4.1661    0.7570    2.6031 S   0  0  0  0  0  6  0  0  0  0  0  0
    4.1441    2.1981    2.7333 O   0  0  0  0  0  0  0  0  0  0  0  0
    4.2958   -0.1023    3.7585 O   0  0  0  0  0  0  0  0  0  0  0  0
    5.4648    0.3503    1.4989 C   0  0  0  0  0  0  0  0  0  0  0  0
    6.4750    1.2882    1.1995 C   0  0  0  0  0  0  0  0  0  0  0  0
    7.5433    1.0070    0.3207 C   0  0  0  0  0  0  0  0  0  0  0  0
    7.6934   -0.2283   -0.3299 C   0  0  0  0  0  0  0  0  0  0  0  0
    6.7012   -1.2012   -0.0644 C   0  0  0  0  0  0  0  0  0  0  0  0
    6.6614   -2.4348   -0.5851 N   0  0  0  0  0  0  0  0  0  0  0  0
    5.3090   -3.1659    0.0330 S   0  0  0  0  0  0  0  0  0  0  0  0
    4.6972   -1.9427    0.9702 N   0  0  0  0  0  0  0  0  0  0  0  0
    5.5524   -0.9096    0.8677 C   0  0  0  0  0  0  0  0  0  0  0  0
    0.6971   -0.3840   -0.7221 C   0  0  0  0  0  0  0  0  0  0  0  0
   -0.6312   -0.6829   -1.0426 C   0  0  0  0  0  0  0  0  0  0  0  0
   -1.6373    0.0722   -0.4687 C   0  0  0  0  0  0  0  0  0  0  0  0
   -5.1486   -0.9266   -1.4421 C   0  0  0  0  0  0  0  0  0  0  0  0
   -5.8468   -0.3835   -2.5214 C   0  0  0  0  0  0  0  0  0  0  0  0
   -7.2413   -0.3953   -2.5130 C   0  0  0  0  0  0  0  0  0  0  0  0
   -7.9291   -0.9654   -1.4388 C   0  0  0  0  0  0  0  0  0  0  0  0
   -7.2272   -1.5241   -0.3695 C   0  0  0  0  0  0  0  0  0  0  0  0
   -5.8312   -1.5092   -0.3710 C   0  0  0  0  0  0  0  0  0  0  0  0
   -4.3458    0.5099    0.9334 H   0  0  0  0  0  0  0  0  0  0  0  0
   -4.2787    1.6322   -0.4402 H   0  0  0  0  0  0  0  0  0  0  0  0
   -2.6009    2.8308    0.6541 H   0  0  0  0  0  0  0  0  0  0  0  0
   -2.6494    1.6664    2.0058 H   0  0  0  0  0  0  0  0  0  0  0  0
    0.1979    2.2191    1.4405 H   0  0  0  0  0  0  0  0  0  0  0  0
    3.1044    0.5778   -0.2626 H   0  0  0  0  0  0  0  0  0  0  0  0
    2.5928    2.0391    0.5837 H   0  0  0  0  0  0  0  0  0  0  0  0
    2.5691   -0.6842    1.8723 H   0  0  0  0  0  0  0  0  0  0  0  0
    6.4431    2.2730    1.6667 H   0  0  0  0  0  0  0  0  0  0  0  0
    8.2878    1.7827    0.1444 H   0  0  0  0  0  0  0  0  0  0  0  0
    8.5195   -0.4321   -0.9994 H   0  0  0  0  0  0  0  0  0  0  0  0
    1.4869   -0.9897   -1.1584 H   0  0  0  0  0  0  0  0  0  0  0  0
   -0.8494   -1.5040   -1.7189 H   0  0  0  0  0  0  0  0  0  0  0  0
   -5.3069    0.0349   -3.3654 H   0  0  0  0  0  0  0  0  0  0  0  0
   -7.7936    0.0188   -3.3541 H   0  0  0  0  0  0  0  0  0  0  0  0
   -9.0168   -0.9851   -1.4422 H   0  0  0  0  0  0  0  0  0  0  0  0
   -7.7683   -1.9835    0.4542 H   0  0  0  0  0  0  0  0  0  0  0  0
   -5.2819   -1.9684    0.4477 H   0  0  0  0  0  0  0  0  0  0  0  0
  1  2  2  0
  2  3  1  0
  3  4  1  0
  4  5  1  0
  5  6  1  0
  6  7  2  0
  7  8  1  0
  8  9  1  0
  9 10  1  0
 10 11  1  0
 11 12  2  0
 11 13  2  0
 11 14  1  0
 14 15  2  0
 15 16  1  0
 16 17  2  0
 17 18  1  0
 18 19  2  0
 19 20  1  0
 20 21  1  0
 21 22  2  0
  8 23  2  0
 23 24  1  0
 24 25  2  0
  2 26  1  0
 26 27  2  0
 27 28  1  0
 28 29  2  0
 29 30  1  0
 30 31  2  0
 25  3  1  0
 25  6  1  0
 22 14  1  0
 22 18  1  0
 31 26  1  0
  4 32  1  0
  4 33  1  0
  5 34  1  0
  5 35  1  0
  7 36  1  0
  9 37  1  0
  9 38  1  0
 10 39  1  0
 15 40  1  0
 16 41  1  0
 17 42  1  0
 23 43  1  0
 24 44  1  0
 27 45  1  0
 28 46  1  0
 29 47  1  0
 30 48  1  0
 31 49  1  0
M  END
>  <Unnamed: 0>  (164) 
1102

>  <ID>  (164) 
TRAIN_1102

>  <Canonical_Smiles>  (164) 
O=C(N1CCc2cc(CNS(=O)(=O)c3cccc4nsnc34)ccc12)c5ccccc5

>  <Inhibition>  (164) 
50.1

>  <TDC_conf_true_inhibitor>  (164) 
1

>  <TDC_conf_non_inhibitor>  (164) 
0

>  <split>  (164) 
1

$$$$
164
     RDKit          3D

 62 67  0  0  0  0  0  0  0  0999 V2000
    1.4682    4.0994    0.7450 C   0  0  0  0  0  0  0  0  0  0  0  0
    0.2423    3.1914    0.8902 C   0  0  0  0  0  0  0  0  0  0  0  0
   -0.9745    3.8750    0.2277 C   0  0  0  0  0  0  0  0  0  0  0  0
   -2.2616    2.9996    0.2091 C   0  0  0  0  0  0  0  0  0  0  0  0
   -3.2943    3.7348   -0.6699 C   0  0  0  0  0  0  0  0  0  0  0  0
   -2.8416    2.8507    1.6260 C   0  0  0  0  0  0  0  0  0  0  0  0
   -1.9463    1.6720   -0.3400 N   0  0  0  0  0  0  0  0  0  0  0  0
   -2.8372    0.7004   -0.8201 C   0  0  0  0  0  0  0  0  0  0  0  0
   -4.0491    0.8063   -0.9407 O   0  0  0  0  0  0  0  0  0  0  0  0
   -1.9854   -0.5487   -1.1947 C   0  0  0  0  0  0  0  0  0  0  0  0
   -2.0943   -0.8182   -2.6942 C   0  0  0  0  0  0  0  0  0  0  0  0
   -2.5258   -2.0088   -3.1947 C   0  0  0  0  0  0  0  0  0  0  0  0
   -2.6568   -2.3124   -4.5328 N   0  0  0  0  0  0  0  0  0  0  0  0
   -2.8932   -3.0813   -2.3632 O   0  0  0  0  0  0  0  0  0  0  0  0
   -2.7996   -2.8767   -1.0556 C   0  0  0  0  0  0  0  0  0  0  0  0
   -3.1148   -3.7927   -0.1063 N   0  0  0  0  0  0  0  0  0  0  0  0
   -2.9331   -3.3273    1.1446 N   0  0  0  0  0  0  0  0  0  0  0  0
   -2.4964   -2.0680    0.9733 C   0  0  0  0  0  0  0  0  0  0  0  0
   -2.1915   -1.2250    2.1567 C   0  0  0  0  0  0  0  0  0  0  0  0
   -2.3887   -1.7437   -0.4023 C   0  0  0  0  0  0  0  0  0  0  0  0
   -1.7360    0.2430   -3.5770 C   0  0  0  0  0  0  0  0  0  0  0  0
   -1.4546    1.1124   -4.2919 N   0  0  0  0  0  0  0  0  0  0  0  0
   -0.6055   -0.1578   -0.7258 C   0  0  0  0  0  0  0  0  0  0  0  0
    0.5857   -0.8619   -0.7091 C   0  0  0  0  0  0  0  0  0  0  0  0
    1.6915   -0.2279   -0.1396 C   0  0  0  0  0  0  0  0  0  0  0  0
    2.9057   -0.9208   -0.1133 O   0  0  0  0  0  0  0  0  0  0  0  0
    3.1940   -1.4608    1.1265 C   0  0  0  0  0  0  0  0  0  0  0  0
    2.5177   -1.3774    2.1412 O   0  0  0  0  0  0  0  0  0  0  0  0
    4.4913   -2.1910    1.0698 C   0  0  0  0  0  0  0  0  0  0  0  0
    5.2720   -2.2615   -0.0931 C   0  0  0  0  0  0  0  0  0  0  0  0
    6.4814   -2.9615   -0.0846 C   0  0  0  0  0  0  0  0  0  0  0  0
    6.9171   -3.5928    1.0800 C   0  0  0  0  0  0  0  0  0  0  0  0
    6.1471   -3.5272    2.2400 C   0  0  0  0  0  0  0  0  0  0  0  0
    4.9382   -2.8288    2.2362 C   0  0  0  0  0  0  0  0  0  0  0  0
    1.6352    1.0879    0.3610 C   0  0  0  0  0  0  0  0  0  0  0  0
    0.4363    1.8080    0.3153 C   0  0  0  0  0  0  0  0  0  0  0  0
   -0.6542    1.1477   -0.2309 C   0  0  0  0  0  0  0  0  0  0  0  0
    1.2504    5.1074    1.1148 H   0  0  0  0  0  0  0  0  0  0  0  0
    2.3175    3.7219    1.3237 H   0  0  0  0  0  0  0  0  0  0  0  0
    1.7840    4.1823   -0.3010 H   0  0  0  0  0  0  0  0  0  0  0  0
    0.0394    3.0741    1.9624 H   0  0  0  0  0  0  0  0  0  0  0  0
   -1.1784    4.8291    0.7318 H   0  0  0  0  0  0  0  0  0  0  0  0
   -0.7070    4.1254   -0.8100 H   0  0  0  0  0  0  0  0  0  0  0  0
   -4.2770    3.2538   -0.6404 H   0  0  0  0  0  0  0  0  0  0  0  0
   -3.4346    4.7681   -0.3320 H   0  0  0  0  0  0  0  0  0  0  0  0
   -2.9722    3.7629   -1.7173 H   0  0  0  0  0  0  0  0  0  0  0  0
   -3.0476    3.8284    2.0751 H   0  0  0  0  0  0  0  0  0  0  0  0
   -2.1579    2.3119    2.2905 H   0  0  0  0  0  0  0  0  0  0  0  0
   -3.7806    2.2853    1.6107 H   0  0  0  0  0  0  0  0  0  0  0  0
   -3.3414   -3.0504   -4.6828 H   0  0  0  0  0  0  0  0  0  0  0  0
   -2.8115   -1.5134   -5.1443 H   0  0  0  0  0  0  0  0  0  0  0  0
   -3.4554   -4.7391   -0.2325 H   0  0  0  0  0  0  0  0  0  0  0  0
   -1.1192   -1.0148    2.2130 H   0  0  0  0  0  0  0  0  0  0  0  0
   -2.4855   -1.7203    3.0880 H   0  0  0  0  0  0  0  0  0  0  0  0
   -2.7322   -0.2759    2.1007 H   0  0  0  0  0  0  0  0  0  0  0  0
    0.6568   -1.8757   -1.0885 H   0  0  0  0  0  0  0  0  0  0  0  0
    4.9578   -1.7789   -1.0153 H   0  0  0  0  0  0  0  0  0  0  0  0
    7.0845   -3.0148   -0.9882 H   0  0  0  0  0  0  0  0  0  0  0  0
    7.8585   -4.1374    1.0835 H   0  0  0  0  0  0  0  0  0  0  0  0
    6.4865   -4.0199    3.1482 H   0  0  0  0  0  0  0  0  0  0  0  0
    4.3449   -2.7853    3.1483 H   0  0  0  0  0  0  0  0  0  0  0  0
    2.5307    1.5189    0.7991 H   0  0  0  0  0  0  0  0  0  0  0  0
  1  2  1  0
  2  3  1  0
  3  4  1  0
  4  5  1  0
  4  6  1  0
  4  7  1  0
  7  8  1  0
  8  9  2  0
  8 10  1  0
 10 11  1  0
 11 12  2  0
 12 13  1  0
 12 14  1  0
 14 15  1  0
 15 16  1  0
 16 17  1  0
 17 18  2  0
 18 19  1  0
 18 20  1  0
 11 21  1  0
 21 22  3  0
 10 23  1  0
 23 24  1  0
 24 25  2  0
 25 26  1  0
 26 27  1  0
 27 28  2  0
 27 29  1  0
 29 30  2  0
 30 31  1  0
 31 32  2  0
 32 33  1  0
 33 34  2  0
 25 35  1  0
 35 36  2  0
 36 37  1  0
 36  2  1  0
 37  7  1  0
 20 10  1  0
 20 15  2  0
 37 23  2  0
 34 29  1  0
  1 38  1  0
  1 39  1  0
  1 40  1  0
  2 41  1  0
  3 42  1  0
  3 43  1  0
  5 44  1  0
  5 45  1  0
  5 46  1  0
  6 47  1  0
  6 48  1  0
  6 49  1  0
 13 50  1  0
 13 51  1  0
 16 52  1  0
 19 53  1  0
 19 54  1  0
 19 55  1  0
 24 56  1  0
 30 57  1  0
 31 58  1  0
 32 59  1  0
 33 60  1  0
 34 61  1  0
 35 62  1  0
M  END
>  <Unnamed: 0>  (165) 
1106

>  <ID>  (165) 
TRAIN_1106

>  <Canonical_Smiles>  (165) 
CC1CC(C)(C)N2C(=O)C3(C(=C(N)Oc4[nH]nc(C)c34)C#N)c5cc(OC(=O)c6ccccc6)cc1c25

>  <Inhibition>  (165) 
37.2

>  <TDC_conf_true_inhibitor>  (165) 
1

>  <TDC_conf_non_inhibitor>  (165) 
0

>  <split>  (165) 
1

$$$$
165
     RDKit          3D

 53 56  0  0  0  0  0  0  0  0999 V2000
    4.1727   -0.4674   -1.5749 C   0  0  0  0  0  0  0  0  0  0  0  0
    3.5373    0.8432   -1.2035 C   0  0  0  0  0  0  0  0  0  0  0  0
    2.9641    1.6324   -2.1285 C   0  0  0  0  0  0  0  0  0  0  0  0
    3.6076    1.2422    0.2553 C   0  0  0  0  0  0  0  0  0  0  0  0
    2.8209    0.3655    1.1159 N   0  0  0  0  0  0  0  0  0  0  0  0
    1.4228    0.3485    1.2084 C   0  0  0  0  0  0  0  0  0  0  0  0
    1.0763   -0.6325    2.1468 C   0  0  0  0  0  0  0  0  0  0  0  0
    2.2782   -1.1826    2.5617 C   0  0  0  0  0  0  0  0  0  0  0  0
    2.6088   -2.1887    3.4641 C   0  0  0  0  0  0  0  0  0  0  0  0
    3.9934   -2.3205    3.4841 C   0  0  0  0  0  0  0  0  0  0  0  0
    4.7894   -1.2047    2.4026 S   0  0  0  0  0  0  0  0  0  0  0  0
    3.3091   -0.5892    1.9494 C   0  0  0  0  0  0  0  0  0  0  0  0
    0.5596    1.2481    0.4690 C   0  0  0  0  0  0  0  0  0  0  0  0
    0.7049    2.4679    0.5228 O   0  0  0  0  0  0  0  0  0  0  0  0
   -0.4046    0.6716   -0.3375 N   0  0  0  0  0  0  0  0  0  0  0  0
   -0.5629   -0.7450   -0.6523 C   0  0  0  0  0  0  0  0  0  0  0  0
   -1.7115   -0.7673   -1.6781 C   0  0  0  0  0  0  0  0  0  0  0  0
   -1.6100   -1.9692   -2.6134 C   0  0  0  0  0  0  0  0  0  0  0  0
   -1.4758    0.5589   -2.4079 C   0  0  0  0  0  0  0  0  0  0  0  0
   -1.2459    1.4792   -1.2130 C   0  0  0  0  0  0  0  0  0  0  0  0
   -2.5916    1.7933   -0.5441 C   0  0  0  0  0  0  0  0  0  0  0  0
   -3.4044    0.5345   -0.1176 C   0  0  0  0  0  0  0  0  0  0  0  0
   -4.9110    0.8667   -0.2132 C   0  0  0  0  0  0  0  0  0  0  0  0
   -3.1325    0.2059    1.3676 C   0  0  0  0  0  0  0  0  0  0  0  0
   -3.1121   -0.7119   -1.0121 C   0  0  0  0  0  0  0  0  0  0  0  0
    5.2176   -0.4898   -1.2490 H   0  0  0  0  0  0  0  0  0  0  0  0
    4.1611   -0.6354   -2.6571 H   0  0  0  0  0  0  0  0  0  0  0  0
    3.6411   -1.3015   -1.1066 H   0  0  0  0  0  0  0  0  0  0  0  0
    2.9239    1.3497   -3.1759 H   0  0  0  0  0  0  0  0  0  0  0  0
    2.5072    2.5817   -1.8586 H   0  0  0  0  0  0  0  0  0  0  0  0
    4.6484    1.2181    0.5974 H   0  0  0  0  0  0  0  0  0  0  0  0
    3.2538    2.2650    0.4244 H   0  0  0  0  0  0  0  0  0  0  0  0
    0.0740   -0.8760    2.4705 H   0  0  0  0  0  0  0  0  0  0  0  0
    1.9309   -2.7826    4.0619 H   0  0  0  0  0  0  0  0  0  0  0  0
    4.5903   -3.0047    4.0710 H   0  0  0  0  0  0  0  0  0  0  0  0
    0.3818   -1.0992   -1.0817 H   0  0  0  0  0  0  0  0  0  0  0  0
   -0.7852   -1.3338    0.2403 H   0  0  0  0  0  0  0  0  0  0  0  0
   -1.7324   -2.9065   -2.0599 H   0  0  0  0  0  0  0  0  0  0  0  0
   -2.3813   -1.9313   -3.3905 H   0  0  0  0  0  0  0  0  0  0  0  0
   -0.6371   -2.0033   -3.1161 H   0  0  0  0  0  0  0  0  0  0  0  0
   -0.5743    0.5092   -3.0322 H   0  0  0  0  0  0  0  0  0  0  0  0
   -2.3133    0.8691   -3.0416 H   0  0  0  0  0  0  0  0  0  0  0  0
   -0.7414    2.4052   -1.5077 H   0  0  0  0  0  0  0  0  0  0  0  0
   -3.1801    2.3846   -1.2586 H   0  0  0  0  0  0  0  0  0  0  0  0
   -2.4283    2.4459    0.3231 H   0  0  0  0  0  0  0  0  0  0  0  0
   -5.5251    0.0164    0.1047 H   0  0  0  0  0  0  0  0  0  0  0  0
   -5.1974    1.1169   -1.2411 H   0  0  0  0  0  0  0  0  0  0  0  0
   -5.1693    1.7234    0.4198 H   0  0  0  0  0  0  0  0  0  0  0  0
   -3.7185   -0.6614    1.6931 H   0  0  0  0  0  0  0  0  0  0  0  0
   -3.4113    1.0470    2.0133 H   0  0  0  0  0  0  0  0  0  0  0  0
   -2.0842   -0.0159    1.5680 H   0  0  0  0  0  0  0  0  0  0  0  0
   -3.2792   -1.6314   -0.4354 H   0  0  0  0  0  0  0  0  0  0  0  0
   -3.8546   -0.7386   -1.8226 H   0  0  0  0  0  0  0  0  0  0  0  0
  1  2  1  0
  2  3  2  0
  2  4  1  0
  4  5  1  0
  5  6  1  0
  6  7  2  0
  7  8  1  0
  8  9  1  0
  9 10  2  0
 10 11  1  0
 11 12  1  0
  6 13  1  0
 13 14  2  0
 13 15  1  0
 15 16  1  0
 16 17  1  0
 17 18  1  0
 17 19  1  0
 19 20  1  0
 20 21  1  0
 21 22  1  0
 22 23  1  0
 22 24  1  0
 22 25  1  0
 12  5  1  0
 12  8  2  0
 20 15  1  0
 25 17  1  0
  1 26  1  0
  1 27  1  0
  1 28  1  0
  3 29  1  0
  3 30  1  0
  4 31  1  0
  4 32  1  0
  7 33  1  0
  9 34  1  0
 10 35  1  0
 16 36  1  0
 16 37  1  0
 18 38  1  0
 18 39  1  0
 18 40  1  0
 19 41  1  0
 19 42  1  0
 20 43  1  0
 21 44  1  0
 21 45  1  0
 23 46  1  0
 23 47  1  0
 23 48  1  0
 24 49  1  0
 24 50  1  0
 24 51  1  0
 25 52  1  0
 25 53  1  0
M  END
>  <Unnamed: 0>  (166) 
1107

>  <ID>  (166) 
TRAIN_1107

>  <Canonical_Smiles>  (166) 
CC(=C)Cn1c(cc2ccsc12)C(=O)N3CC4(C)CC3CC(C)(C)C4

>  <Inhibition>  (166) 
78.7

>  <TDC_conf_true_inhibitor>  (166) 
1

>  <TDC_conf_non_inhibitor>  (166) 
0

>  <split>  (166) 
1

$$$$
166
     RDKit          3D

 61 64  0  0  0  0  0  0  0  0999 V2000
    7.5743   -1.6701    2.2958 C   0  0  0  0  0  0  0  0  0  0  0  0
    7.0249   -1.5455    3.7080 C   0  0  0  0  0  0  0  0  0  0  0  0
    5.6040   -1.3252    3.6592 O   0  0  0  0  0  0  0  0  0  0  0  0
    5.1969   -0.0222    3.6388 C   0  0  0  0  0  0  0  0  0  0  0  0
    5.9341    0.9606    3.6934 O   0  0  0  0  0  0  0  0  0  0  0  0
    3.6869    0.0551    3.5314 C   0  0  0  0  0  0  0  0  0  0  0  0
    3.2800    0.5159    2.1409 C   0  0  0  0  0  0  0  0  0  0  0  0
    2.7890   -0.4033    1.2981 C   0  0  0  0  0  0  0  0  0  0  0  0
    2.4381   -0.1146   -0.1026 C   0  0  0  0  0  0  0  0  0  0  0  0
    2.0912    0.9582   -0.7103 N   0  0  0  0  0  0  0  0  0  0  0  0
    1.9587    2.2130   -0.0951 C   0  0  0  0  0  0  0  0  0  0  0  0
    1.1349    3.1149   -0.7967 C   0  0  0  0  0  0  0  0  0  0  0  0
    0.9453    4.4301   -0.3729 C   0  0  0  0  0  0  0  0  0  0  0  0
    1.5960    4.8765    0.7655 C   0  0  0  0  0  0  0  0  0  0  0  0
    2.4284    4.0063    1.4693 C   0  0  0  0  0  0  0  0  0  0  0  0
    2.6210    2.6655    1.0626 C   0  0  0  0  0  0  0  0  0  0  0  0
    3.4425    1.8652    1.8860 N   0  0  0  0  0  0  0  0  0  0  0  0
    2.5063   -1.5815   -1.0971 S   0  0  0  0  0  0  0  0  0  0  0  0
    0.8298   -1.4906   -1.7972 C   0  0  0  0  0  0  0  0  0  0  0  0
   -0.2619   -1.6104   -0.7301 C   0  0  0  0  0  0  0  0  0  0  0  0
   -0.0214   -1.9544    0.4314 O   0  0  0  0  0  0  0  0  0  0  0  0
   -1.5656   -1.3591   -1.1500 N   0  0  0  0  0  0  0  0  0  0  0  0
   -2.6791   -1.5997   -0.2201 C   0  0  0  0  0  0  0  0  0  0  0  0
   -3.8803   -2.2438   -0.9318 C   0  0  0  0  0  0  0  0  0  0  0  0
   -4.3492   -1.4564   -2.0989 N   0  0  0  0  0  0  0  0  0  0  0  0
   -3.3989   -0.4294   -2.5911 C   0  0  0  0  0  0  0  0  0  0  0  0
   -1.9435   -0.9259   -2.5015 C   0  0  0  0  0  0  0  0  0  0  0  0
   -5.6561   -0.9298   -2.0071 C   0  0  0  0  0  0  0  0  0  0  0  0
   -6.4550   -0.9386   -3.1628 C   0  0  0  0  0  0  0  0  0  0  0  0
   -7.7624   -0.4334   -3.1502 C   0  0  0  0  0  0  0  0  0  0  0  0
   -8.2936    0.1034   -1.9788 C   0  0  0  0  0  0  0  0  0  0  0  0
   -7.5146    0.1374   -0.8230 C   0  0  0  0  0  0  0  0  0  0  0  0
   -6.2125   -0.3691   -0.8433 C   0  0  0  0  0  0  0  0  0  0  0  0
   -5.4851   -0.2855    0.2853 F   0  0  0  0  0  0  0  0  0  0  0  0
    7.0354   -2.4495    1.7456 H   0  0  0  0  0  0  0  0  0  0  0  0
    7.4437   -0.7330    1.7416 H   0  0  0  0  0  0  0  0  0  0  0  0
    8.6400   -1.9229    2.3070 H   0  0  0  0  0  0  0  0  0  0  0  0
    7.5421   -0.7537    4.2709 H   0  0  0  0  0  0  0  0  0  0  0  0
    7.1813   -2.4882    4.2494 H   0  0  0  0  0  0  0  0  0  0  0  0
    3.3272    0.7509    4.2977 H   0  0  0  0  0  0  0  0  0  0  0  0
    3.2442   -0.9138    3.7951 H   0  0  0  0  0  0  0  0  0  0  0  0
    2.6834   -1.4399    1.6103 H   0  0  0  0  0  0  0  0  0  0  0  0
    0.6433    2.7750   -1.7052 H   0  0  0  0  0  0  0  0  0  0  0  0
    0.3022    5.1002   -0.9360 H   0  0  0  0  0  0  0  0  0  0  0  0
    1.4570    5.8974    1.1083 H   0  0  0  0  0  0  0  0  0  0  0  0
    2.9248    4.3823    2.3614 H   0  0  0  0  0  0  0  0  0  0  0  0
    3.9103    2.3840    2.6263 H   0  0  0  0  0  0  0  0  0  0  0  0
    0.7350   -0.5534   -2.3497 H   0  0  0  0  0  0  0  0  0  0  0  0
    0.7097   -2.3232   -2.4989 H   0  0  0  0  0  0  0  0  0  0  0  0
   -2.9552   -0.6294    0.2045 H   0  0  0  0  0  0  0  0  0  0  0  0
   -2.3603   -2.2426    0.6048 H   0  0  0  0  0  0  0  0  0  0  0  0
   -3.5631   -3.2174   -1.3233 H   0  0  0  0  0  0  0  0  0  0  0  0
   -4.6793   -2.4613   -0.2130 H   0  0  0  0  0  0  0  0  0  0  0  0
   -3.6232   -0.1821   -3.6364 H   0  0  0  0  0  0  0  0  0  0  0  0
   -3.4954    0.4927   -2.0003 H   0  0  0  0  0  0  0  0  0  0  0  0
   -1.2705   -0.1245   -2.8261 H   0  0  0  0  0  0  0  0  0  0  0  0
   -1.7951   -1.7842   -3.1681 H   0  0  0  0  0  0  0  0  0  0  0  0
   -6.0605   -1.3657   -4.0816 H   0  0  0  0  0  0  0  0  0  0  0  0
   -8.3612   -0.4662   -4.0573 H   0  0  0  0  0  0  0  0  0  0  0  0
   -9.3107    0.4969   -1.9636 H   0  0  0  0  0  0  0  0  0  0  0  0
   -7.9084    0.5578    0.0969 H   0  0  0  0  0  0  0  0  0  0  0  0
  1  2  1  0
  2  3  1  0
  3  4  1  0
  4  5  2  0
  4  6  1  0
  6  7  1  0
  7  8  2  0
  8  9  1  0
  9 10  2  0
 10 11  1  0
 11 12  2  0
 12 13  1  0
 13 14  2  0
 14 15  1  0
 15 16  2  0
 16 17  1  0
  9 18  1  0
 18 19  1  0
 19 20  1  0
 20 21  2  0
 20 22  1  0
 22 23  1  0
 23 24  1  0
 24 25  1  0
 25 26  1  0
 26 27  1  0
 25 28  1  0
 28 29  2  0
 29 30  1  0
 30 31  2  0
 31 32  1  0
 32 33  2  0
 33 34  1  0
 17  7  1  0
 16 11  1  0
 27 22  1  0
 33 28  1  0
  1 35  1  0
  1 36  1  0
  1 37  1  0
  2 38  1  0
  2 39  1  0
  6 40  1  0
  6 41  1  0
  8 42  1  0
 12 43  1  0
 13 44  1  0
 14 45  1  0
 15 46  1  0
 17 47  1  0
 19 48  1  0
 19 49  1  0
 23 50  1  0
 23 51  1  0
 24 52  1  0
 24 53  1  0
 26 54  1  0
 26 55  1  0
 27 56  1  0
 27 57  1  0
 29 58  1  0
 30 59  1  0
 31 60  1  0
 32 61  1  0
M  END
>  <Unnamed: 0>  (167) 
1118

>  <ID>  (167) 
TRAIN_1118

>  <Canonical_Smiles>  (167) 
CCOC(=O)CC1=CC(=Nc2ccccc2N1)SCC(=O)N3CCN(CC3)c4ccccc4F

>  <Inhibition>  (167) 
65.9

>  <TDC_conf_true_inhibitor>  (167) 
1

>  <TDC_conf_non_inhibitor>  (167) 
0

>  <split>  (167) 
1

$$$$
167
     RDKit          3D

 41 43  0  0  0  0  0  0  0  0999 V2000
    6.4029    0.5721   -1.8649 C   0  0  0  0  0  0  0  0  0  0  0  0
    5.3481    1.4701   -1.5423 O   0  0  0  0  0  0  0  0  0  0  0  0
    4.3368    0.8660   -0.7327 C   0  0  0  0  0  0  0  0  0  0  0  0
    3.3589    0.0348   -1.5683 C   0  0  0  0  0  0  0  0  0  0  0  0
    2.2367   -0.4587   -0.7957 N   0  0  0  0  0  0  0  0  0  0  0  0
    2.3491   -1.5240    0.0598 C   0  0  0  0  0  0  0  0  0  0  0  0
    3.4024   -2.1378    0.2091 O   0  0  0  0  0  0  0  0  0  0  0  0
    1.1130   -1.8915    0.8088 C   0  0  0  0  0  0  0  0  0  0  0  0
    1.1633   -2.9588    1.6227 C   0  0  0  0  0  0  0  0  0  0  0  0
    0.1250   -3.4366    2.3822 N   0  0  0  0  0  0  0  0  0  0  0  0
   -0.9781   -2.7795    2.2831 C   0  0  0  0  0  0  0  0  0  0  0  0
   -2.4381   -3.2035    3.1573 S   0  0  0  0  0  0  0  0  0  0  0  0
   -3.2817   -1.8683    2.4368 C   0  0  0  0  0  0  0  0  0  0  0  0
   -2.4950   -1.1715    1.6013 C   0  0  0  0  0  0  0  0  0  0  0  0
   -1.2004   -1.6649    1.5003 N   0  0  0  0  0  0  0  0  0  0  0  0
   -0.1789   -1.1552    0.7204 C   0  0  0  0  0  0  0  0  0  0  0  0
   -0.2629   -0.1697   -0.0120 O   0  0  0  0  0  0  0  0  0  0  0  0
   -2.9953   -0.0014    0.8826 C   0  0  0  0  0  0  0  0  0  0  0  0
   -3.6371   -0.1519   -0.3521 C   0  0  0  0  0  0  0  0  0  0  0  0
   -4.1429    0.9638   -1.0241 C   0  0  0  0  0  0  0  0  0  0  0  0
   -4.0280    2.2418   -0.4649 C   0  0  0  0  0  0  0  0  0  0  0  0
   -4.5355    3.4435   -1.2059 C   0  0  0  0  0  0  0  0  0  0  0  0
   -3.3783    2.3910    0.7659 C   0  0  0  0  0  0  0  0  0  0  0  0
   -2.8723    1.2765    1.4400 C   0  0  0  0  0  0  0  0  0  0  0  0
    6.8762    0.1913   -0.9550 H   0  0  0  0  0  0  0  0  0  0  0  0
    7.1529    1.1206   -2.4413 H   0  0  0  0  0  0  0  0  0  0  0  0
    6.0384   -0.2567   -2.4773 H   0  0  0  0  0  0  0  0  0  0  0  0
    3.7876    1.6839   -0.2525 H   0  0  0  0  0  0  0  0  0  0  0  0
    4.7901    0.2771    0.0734 H   0  0  0  0  0  0  0  0  0  0  0  0
    2.9571    0.6378   -2.3898 H   0  0  0  0  0  0  0  0  0  0  0  0
    3.8719   -0.8203   -2.0209 H   0  0  0  0  0  0  0  0  0  0  0  0
    1.3501    0.0463   -0.8460 H   0  0  0  0  0  0  0  0  0  0  0  0
    2.0869   -3.5293    1.7214 H   0  0  0  0  0  0  0  0  0  0  0  0
   -4.3189   -1.6508    2.6574 H   0  0  0  0  0  0  0  0  0  0  0  0
   -3.7407   -1.1347   -0.8059 H   0  0  0  0  0  0  0  0  0  0  0  0
   -4.6250    0.8290   -1.9901 H   0  0  0  0  0  0  0  0  0  0  0  0
   -3.7491    3.8430   -1.8535 H   0  0  0  0  0  0  0  0  0  0  0  0
   -4.8530    4.2265   -0.5092 H   0  0  0  0  0  0  0  0  0  0  0  0
   -5.4038    3.1852   -1.8211 H   0  0  0  0  0  0  0  0  0  0  0  0
   -3.2588    3.3781    1.2070 H   0  0  0  0  0  0  0  0  0  0  0  0
   -2.3736    1.4176    2.3959 H   0  0  0  0  0  0  0  0  0  0  0  0
  1  2  1  0
  2  3  1  0
  3  4  1  0
  4  5  1  0
  5  6  1  0
  6  7  2  0
  6  8  1  0
  8  9  2  0
  9 10  1  0
 10 11  2  0
 11 12  1  0
 12 13  1  0
 13 14  2  0
 14 15  1  0
 15 16  1  0
 16 17  2  0
 14 18  1  0
 18 19  2  0
 19 20  1  0
 20 21  2  0
 21 22  1  0
 21 23  1  0
 23 24  2  0
 16  8  1  0
 15 11  1  0
 24 18  1  0
  1 25  1  0
  1 26  1  0
  1 27  1  0
  3 28  1  0
  3 29  1  0
  4 30  1  0
  4 31  1  0
  5 32  1  0
  9 33  1  0
 13 34  1  0
 19 35  1  0
 20 36  1  0
 22 37  1  0
 22 38  1  0
 22 39  1  0
 23 40  1  0
 24 41  1  0
M  END
>  <Unnamed: 0>  (168) 
1120

>  <ID>  (168) 
TRAIN_1120

>  <Canonical_Smiles>  (168) 
COCCNC(=O)C1=CN=C2SC=C(N2C1=O)c3ccc(C)cc3

>  <Inhibition>  (168) 
5.58

>  <TDC_conf_true_inhibitor>  (168) 
0

>  <TDC_conf_non_inhibitor>  (168) 
1

>  <split>  (168) 
1

$$$$
168
     RDKit          3D

 37 38  0  0  0  0  0  0  0  0999 V2000
    6.2852    0.2565   -1.6902 C   0  0  0  0  0  0  0  0  0  0  0  0
    5.4999   -0.2057   -0.4977 C   0  0  0  0  0  0  0  0  0  0  0  0
    6.0625   -1.1105    0.4113 C   0  0  0  0  0  0  0  0  0  0  0  0
    5.3562   -1.5052    1.5481 C   0  0  0  0  0  0  0  0  0  0  0  0
    4.0800   -0.9969    1.7882 C   0  0  0  0  0  0  0  0  0  0  0  0
    3.5020   -0.0941    0.8883 C   0  0  0  0  0  0  0  0  0  0  0  0
    4.2214    0.3133   -0.2447 C   0  0  0  0  0  0  0  0  0  0  0  0
    2.1400    0.4251    1.1884 C   0  0  0  0  0  0  0  0  0  0  0  0
    1.7181    0.4561    2.3428 O   0  0  0  0  0  0  0  0  0  0  0  0
    1.3837    0.8299    0.1000 N   0  0  0  0  0  0  0  0  0  0  0  0
    0.0535    1.1735    0.3526 N   0  0  0  0  0  0  0  0  0  0  0  0
   -0.9686    0.6636   -0.4106 C   0  0  0  0  0  0  0  0  0  0  0  0
   -2.2474    0.5238   -0.0403 C   0  0  0  0  0  0  0  0  0  0  0  0
   -3.2284   -0.0564   -0.9953 C   0  0  0  0  0  0  0  0  0  0  0  0
   -2.8752   -0.5830   -2.0460 O   0  0  0  0  0  0  0  0  0  0  0  0
   -4.6691   -0.0201   -0.6258 C   0  0  0  0  0  0  0  0  0  0  0  0
   -5.5046   -1.0235   -1.1352 C   0  0  0  0  0  0  0  0  0  0  0  0
   -6.8651   -1.0335   -0.8231 C   0  0  0  0  0  0  0  0  0  0  0  0
   -7.3999   -0.0361   -0.0095 C   0  0  0  0  0  0  0  0  0  0  0  0
   -6.5785    0.9760    0.4865 C   0  0  0  0  0  0  0  0  0  0  0  0
   -5.2157    0.9895    0.1771 C   0  0  0  0  0  0  0  0  0  0  0  0
    5.6196    0.4991   -2.5252 H   0  0  0  0  0  0  0  0  0  0  0  0
    6.9675   -0.5269   -2.0364 H   0  0  0  0  0  0  0  0  0  0  0  0
    6.8687    1.1456   -1.4320 H   0  0  0  0  0  0  0  0  0  0  0  0
    7.0614   -1.5085    0.2431 H   0  0  0  0  0  0  0  0  0  0  0  0
    5.8024   -2.2049    2.2506 H   0  0  0  0  0  0  0  0  0  0  0  0
    3.5368   -1.3055    2.6794 H   0  0  0  0  0  0  0  0  0  0  0  0
    3.8106    1.0550   -0.9246 H   0  0  0  0  0  0  0  0  0  0  0  0
    1.6288    0.5977   -0.8560 H   0  0  0  0  0  0  0  0  0  0  0  0
   -0.1415    1.2241    1.3611 H   0  0  0  0  0  0  0  0  0  0  0  0
   -0.6551    0.3692   -1.4113 H   0  0  0  0  0  0  0  0  0  0  0  0
   -2.5759    0.8054    0.9505 H   0  0  0  0  0  0  0  0  0  0  0  0
   -5.0958   -1.8023   -1.7766 H   0  0  0  0  0  0  0  0  0  0  0  0
   -7.5065   -1.8172   -1.2186 H   0  0  0  0  0  0  0  0  0  0  0  0
   -8.4605   -0.0424    0.2307 H   0  0  0  0  0  0  0  0  0  0  0  0
   -7.0027    1.7611    1.1082 H   0  0  0  0  0  0  0  0  0  0  0  0
   -4.6079    1.8080    0.5518 H   0  0  0  0  0  0  0  0  0  0  0  0
  1  2  1  0
  2  3  2  0
  3  4  1  0
  4  5  2  0
  5  6  1  0
  6  7  2  0
  6  8  1  0
  8  9  2  0
  8 10  1  0
 10 11  1  0
 11 12  1  0
 12 13  2  0
 13 14  1  0
 14 15  2  0
 14 16  1  0
 16 17  2  0
 17 18  1  0
 18 19  2  0
 19 20  1  0
 20 21  2  0
  7  2  1  0
 21 16  1  0
  1 22  1  0
  1 23  1  0
  1 24  1  0
  3 25  1  0
  4 26  1  0
  5 27  1  0
  7 28  1  0
 10 29  1  0
 11 30  1  0
 12 31  1  0
 13 32  1  0
 17 33  1  0
 18 34  1  0
 19 35  1  0
 20 36  1  0
 21 37  1  0
M  END
>  <Unnamed: 0>  (169) 
1129

>  <ID>  (169) 
TRAIN_1129

>  <Canonical_Smiles>  (169) 
Cc1cccc(c1)C(=O)NN\C=C\C(=O)c2ccccc2

>  <Inhibition>  (169) 
49.4

>  <TDC_conf_true_inhibitor>  (169) 
0

>  <TDC_conf_non_inhibitor>  (169) 
1

>  <split>  (169) 
1

$$$$
169
     RDKit          3D

 59 62  0  0  0  0  0  0  0  0999 V2000
   -3.0165    6.4904    1.2648 C   0  0  0  0  0  0  0  0  0  0  0  0
   -2.0205    6.1902    0.2994 O   0  0  0  0  0  0  0  0  0  0  0  0
   -1.8122    4.8693    0.0069 C   0  0  0  0  0  0  0  0  0  0  0  0
   -2.6892    3.8371    0.3403 C   0  0  0  0  0  0  0  0  0  0  0  0
   -2.4212    2.5186   -0.0540 C   0  0  0  0  0  0  0  0  0  0  0  0
   -1.2714    2.1976   -0.7864 C   0  0  0  0  0  0  0  0  0  0  0  0
   -0.4047    3.2384   -1.1373 C   0  0  0  0  0  0  0  0  0  0  0  0
   -0.6572    4.5516   -0.7216 C   0  0  0  0  0  0  0  0  0  0  0  0
    0.2416    5.5021   -1.1431 O   0  0  0  0  0  0  0  0  0  0  0  0
    0.9957    6.0219   -0.0513 C   0  0  0  0  0  0  0  0  0  0  0  0
   -1.0244    0.8585   -1.2122 N   0  0  0  0  0  0  0  0  0  0  0  0
   -2.1563    0.0412   -1.6604 C   0  0  0  0  0  0  0  0  0  0  0  0
   -2.4763   -1.0185   -0.5997 C   0  0  0  0  0  0  0  0  0  0  0  0
   -2.6545   -0.7322    0.5839 O   0  0  0  0  0  0  0  0  0  0  0  0
   -2.5532   -2.3108   -1.0887 N   0  0  0  0  0  0  0  0  0  0  0  0
   -2.6653   -3.4339   -0.1797 C   0  0  0  0  0  0  0  0  0  0  0  0
   -1.3014   -3.8982    0.3553 C   0  0  0  0  0  0  0  0  0  0  0  0
   -1.3746   -5.4272    0.4288 C   0  0  0  0  0  0  0  0  0  0  0  0
   -2.8118   -5.7953    0.0761 C   0  0  0  0  0  0  0  0  0  0  0  0
   -3.2535   -4.6734   -0.8502 C   0  0  0  0  0  0  0  0  0  0  0  0
    0.2373    0.2566   -1.3155 C   0  0  0  0  0  0  0  0  0  0  0  0
    0.4006   -0.7489   -2.0135 O   0  0  0  0  0  0  0  0  0  0  0  0
    1.3650    0.8384   -0.4889 C   0  0  0  0  0  0  0  0  0  0  0  0
    2.2539   -0.2022   -0.0179 N   0  0  0  0  0  0  0  0  0  0  0  0
    1.8526   -1.1239    0.8740 N   0  0  0  0  0  0  0  0  0  0  0  0
    2.9579   -1.7763    1.2064 N   0  0  0  0  0  0  0  0  0  0  0  0
    3.9891   -1.1734    0.5302 C   0  0  0  0  0  0  0  0  0  0  0  0
    3.5851   -0.1465   -0.2337 N   0  0  0  0  0  0  0  0  0  0  0  0
    5.4777   -1.6293    0.6695 C   0  0  0  0  0  0  0  0  0  0  0  0
    5.8863   -2.6705    1.4772 C   0  0  0  0  0  0  0  0  0  0  0  0
    7.2994   -2.8631    1.4288 C   0  0  0  0  0  0  0  0  0  0  0  0
    7.9115   -1.9699    0.5740 C   0  0  0  0  0  0  0  0  0  0  0  0
    6.7865   -0.8987   -0.1475 S   0  0  0  0  0  0  0  0  0  0  0  0
   -2.9558    7.5614    1.4842 H   0  0  0  0  0  0  0  0  0  0  0  0
   -2.8395    5.9473    2.1986 H   0  0  0  0  0  0  0  0  0  0  0  0
   -4.0152    6.2875    0.8724 H   0  0  0  0  0  0  0  0  0  0  0  0
   -3.5979    4.0210    0.9031 H   0  0  0  0  0  0  0  0  0  0  0  0
   -3.1255    1.7472    0.2535 H   0  0  0  0  0  0  0  0  0  0  0  0
    0.4467    3.0711   -1.7885 H   0  0  0  0  0  0  0  0  0  0  0  0
    0.3807    6.6115    0.6324 H   0  0  0  0  0  0  0  0  0  0  0  0
    1.7622    6.6869   -0.4613 H   0  0  0  0  0  0  0  0  0  0  0  0
    1.5029    5.2151    0.4930 H   0  0  0  0  0  0  0  0  0  0  0  0
   -1.9033   -0.4350   -2.6160 H   0  0  0  0  0  0  0  0  0  0  0  0
   -3.0516    0.6472   -1.8415 H   0  0  0  0  0  0  0  0  0  0  0  0
   -2.0882   -2.4935   -1.9751 H   0  0  0  0  0  0  0  0  0  0  0  0
   -3.3046   -3.1450    0.6668 H   0  0  0  0  0  0  0  0  0  0  0  0
   -1.1021   -3.4607    1.3417 H   0  0  0  0  0  0  0  0  0  0  0  0
   -0.4743   -3.5987   -0.3027 H   0  0  0  0  0  0  0  0  0  0  0  0
   -1.0874   -5.8074    1.4145 H   0  0  0  0  0  0  0  0  0  0  0  0
   -0.6868   -5.8645   -0.3064 H   0  0  0  0  0  0  0  0  0  0  0  0
   -2.8870   -6.7816   -0.3937 H   0  0  0  0  0  0  0  0  0  0  0  0
   -3.4313   -5.8017    0.9814 H   0  0  0  0  0  0  0  0  0  0  0  0
   -4.3436   -4.6134   -0.9455 H   0  0  0  0  0  0  0  0  0  0  0  0
   -2.8333   -4.8214   -1.8536 H   0  0  0  0  0  0  0  0  0  0  0  0
    0.9980    1.3509    0.4071 H   0  0  0  0  0  0  0  0  0  0  0  0
    1.9522    1.5273   -1.1054 H   0  0  0  0  0  0  0  0  0  0  0  0
    5.2072   -3.2636    2.0818 H   0  0  0  0  0  0  0  0  0  0  0  0
    7.8366   -3.6202    1.9878 H   0  0  0  0  0  0  0  0  0  0  0  0
    8.9650   -1.8873    0.3437 H   0  0  0  0  0  0  0  0  0  0  0  0
  1  2  1  0
  2  3  1  0
  3  4  2  0
  4  5  1  0
  5  6  2  0
  6  7  1  0
  7  8  2  0
  8  9  1  0
  9 10  1  0
  6 11  1  0
 11 12  1  0
 12 13  1  0
 13 14  2  0
 13 15  1  0
 15 16  1  0
 16 17  1  0
 17 18  1  0
 18 19  1  0
 19 20  1  0
 11 21  1  0
 21 22  2  0
 21 23  1  0
 23 24  1  0
 24 25  1  0
 25 26  2  0
 26 27  1  0
 27 28  2  0
 27 29  1  0
 29 30  2  0
 30 31  1  0
 31 32  2  0
 32 33  1  0
  8  3  1  0
 20 16  1  0
 28 24  1  0
 33 29  1  0
  1 34  1  0
  1 35  1  0
  1 36  1  0
  4 37  1  0
  5 38  1  0
  7 39  1  0
 10 40  1  0
 10 41  1  0
 10 42  1  0
 12 43  1  0
 12 44  1  0
 15 45  1  0
 16 46  1  0
 17 47  1  0
 17 48  1  0
 18 49  1  0
 18 50  1  0
 19 51  1  0
 19 52  1  0
 20 53  1  0
 20 54  1  0
 23 55  1  0
 23 56  1  0
 30 57  1  0
 31 58  1  0
 32 59  1  0
M  END
>  <Unnamed: 0>  (170) 
1132

>  <ID>  (170) 
TRAIN_1132

>  <Canonical_Smiles>  (170) 
COc1ccc(cc1OC)N(CC(=O)NC2CCCC2)C(=O)Cn3nnc(n3)c4cccs4

>  <Inhibition>  (170) 
67.7

>  <TDC_conf_true_inhibitor>  (170) 
1

>  <TDC_conf_non_inhibitor>  (170) 
0

>  <split>  (170) 
1

$$$$
170
     RDKit          3D

 41 44  0  0  0  0  0  0  0  0999 V2000
   -6.0861   -2.7714   -1.9978 C   0  0  0  0  0  0  0  0  0  0  0  0
   -5.0262   -2.1779   -1.1136 C   0  0  0  0  0  0  0  0  0  0  0  0
   -5.3323   -1.0635   -0.3098 C   0  0  0  0  0  0  0  0  0  0  0  0
   -4.3862   -0.4922    0.5511 C   0  0  0  0  0  0  0  0  0  0  0  0
   -3.1400   -1.1060    0.5645 C   0  0  0  0  0  0  0  0  0  0  0  0
   -2.0551   -0.7569    1.3097 O   0  0  0  0  0  0  0  0  0  0  0  0
   -1.0964   -1.6722    0.9563 C   0  0  0  0  0  0  0  0  0  0  0  0
    0.5041   -1.6819    1.6401 S   0  0  0  0  0  0  0  0  0  0  0  0
    0.5016   -0.1028    2.5342 C   0  0  0  0  0  0  0  0  0  0  0  0
    0.5114    1.0822    1.6338 C   0  0  0  0  0  0  0  0  0  0  0  0
   -0.2396    2.1644    1.8774 N   0  0  0  0  0  0  0  0  0  0  0  0
    0.0997    3.0346    0.8405 O   0  0  0  0  0  0  0  0  0  0  0  0
    1.0318    2.3901    0.0817 C   0  0  0  0  0  0  0  0  0  0  0  0
    1.5744    3.1326   -1.0859 C   0  0  0  0  0  0  0  0  0  0  0  0
    2.4860    2.2730   -1.9592 C   0  0  0  0  0  0  0  0  0  0  0  0
    3.8559    2.1020   -1.3241 C   0  0  0  0  0  0  0  0  0  0  0  0
    4.7644    2.8755   -1.6063 O   0  0  0  0  0  0  0  0  0  0  0  0
    3.9050    1.0584   -0.4314 N   0  0  0  0  0  0  0  0  0  0  0  0
    5.0345    0.7440    0.2678 C   0  0  0  0  0  0  0  0  0  0  0  0
    6.2522    1.2224    0.1853 N   0  0  0  0  0  0  0  0  0  0  0  0
    7.1095    0.6061    1.0823 N   0  0  0  0  0  0  0  0  0  0  0  0
    6.4881   -0.3099    1.7958 C   0  0  0  0  0  0  0  0  0  0  0  0
    4.8216   -0.4897    1.4329 S   0  0  0  0  0  0  0  0  0  0  0  0
    1.3262    1.1864    0.5258 N   0  0  0  0  0  0  0  0  0  0  0  0
   -1.4921   -2.5609    0.0650 N   0  0  0  0  0  0  0  0  0  0  0  0
   -2.7922   -2.2085   -0.1949 C   0  0  0  0  0  0  0  0  0  0  0  0
   -3.7473   -2.7683   -1.0521 C   0  0  0  0  0  0  0  0  0  0  0  0
   -6.7393   -3.4269   -1.4118 H   0  0  0  0  0  0  0  0  0  0  0  0
   -5.6414   -3.3551   -2.8108 H   0  0  0  0  0  0  0  0  0  0  0  0
   -6.6896   -1.9819   -2.4574 H   0  0  0  0  0  0  0  0  0  0  0  0
   -6.3306   -0.6262   -0.3514 H   0  0  0  0  0  0  0  0  0  0  0  0
   -4.6097    0.3676    1.1694 H   0  0  0  0  0  0  0  0  0  0  0  0
   -0.3496   -0.0725    3.2225 H   0  0  0  0  0  0  0  0  0  0  0  0
    1.4070   -0.0725    3.1505 H   0  0  0  0  0  0  0  0  0  0  0  0
    0.7324    3.4895   -1.6927 H   0  0  0  0  0  0  0  0  0  0  0  0
    2.1125    4.0156   -0.7228 H   0  0  0  0  0  0  0  0  0  0  0  0
    2.0472    1.2891   -2.1695 H   0  0  0  0  0  0  0  0  0  0  0  0
    2.6389    2.7588   -2.9306 H   0  0  0  0  0  0  0  0  0  0  0  0
    3.0507    0.5736   -0.1653 H   0  0  0  0  0  0  0  0  0  0  0  0
    6.9903   -0.9010    2.5489 H   0  0  0  0  0  0  0  0  0  0  0  0
   -3.4916   -3.6369   -1.6481 H   0  0  0  0  0  0  0  0  0  0  0  0
  1  2  1  0
  2  3  2  0
  3  4  1  0
  4  5  2  0
  5  6  1  0
  6  7  1  0
  7  8  1  0
  8  9  1  0
  9 10  1  0
 10 11  2  0
 11 12  1  0
 12 13  1  0
 13 14  1  0
 14 15  1  0
 15 16  1  0
 16 17  2  0
 16 18  1  0
 18 19  1  0
 19 20  2  0
 20 21  1  0
 21 22  2  0
 22 23  1  0
 13 24  2  0
  7 25  2  0
 25 26  1  0
 26 27  2  0
 27  2  1  0
 26  5  1  0
 24 10  1  0
 23 19  1  0
  1 28  1  0
  1 29  1  0
  1 30  1  0
  3 31  1  0
  4 32  1  0
  9 33  1  0
  9 34  1  0
 14 35  1  0
 14 36  1  0
 15 37  1  0
 15 38  1  0
 18 39  1  0
 22 40  1  0
 27 41  1  0
M  END
>  <Unnamed: 0>  (171) 
1138

>  <ID>  (171) 
TRAIN_1138

>  <Canonical_Smiles>  (171) 
Cc1ccc2oc(SCc3noc(CCC(=O)Nc4nncs4)n3)nc2c1

>  <Inhibition>  (171) 
28.6

>  <TDC_conf_true_inhibitor>  (171) 
1

>  <TDC_conf_non_inhibitor>  (171) 
0

>  <split>  (171) 
1

$$$$
171
     RDKit          3D

 44 46  0  0  0  0  0  0  0  0999 V2000
    4.3457    3.2127   -0.2947 C   0  0  0  0  0  0  0  0  0  0  0  0
    5.0733    2.0001   -0.1360 O   0  0  0  0  0  0  0  0  0  0  0  0
    4.3414    0.8474   -0.0607 C   0  0  0  0  0  0  0  0  0  0  0  0
    5.0951   -0.3131    0.0878 C   0  0  0  0  0  0  0  0  0  0  0  0
    4.4618   -1.5510    0.1757 C   0  0  0  0  0  0  0  0  0  0  0  0
    3.0515   -1.6372    0.1152 C   0  0  0  0  0  0  0  0  0  0  0  0
    2.3028   -2.8150    0.1917 C   0  0  0  0  0  0  0  0  0  0  0  0
    2.9528   -4.1591    0.3527 C   0  0  0  0  0  0  0  0  0  0  0  0
    0.9523   -2.8258    0.1265 N   0  0  0  0  0  0  0  0  0  0  0  0
    0.3155   -1.6524   -0.0192 C   0  0  0  0  0  0  0  0  0  0  0  0
   -1.0610   -1.7439   -0.0759 N   0  0  0  0  0  0  0  0  0  0  0  0
   -1.9942   -0.7778   -0.2512 C   0  0  0  0  0  0  0  0  0  0  0  0
   -1.7358    0.4746   -0.3977 N   0  0  0  0  0  0  0  0  0  0  0  0
   -2.8126    1.4360   -0.6090 C   0  0  0  0  0  0  0  0  0  0  0  0
   -3.1081    1.5294   -2.1130 C   0  0  0  0  0  0  0  0  0  0  0  0
   -2.3071    2.7973   -0.1141 C   0  0  0  0  0  0  0  0  0  0  0  0
   -4.0345    1.0249    0.1963 C   0  0  0  0  0  0  0  0  0  0  0  0
   -4.2589   -0.4326   -0.0586 C   0  0  0  0  0  0  0  0  0  0  0  0
   -3.2838   -1.2555   -0.2677 N   0  0  0  0  0  0  0  0  0  0  0  0
   -5.6686   -0.9527   -0.0232 C   0  0  0  0  0  0  0  0  0  0  0  0
    0.9605   -0.4841   -0.0968 N   0  0  0  0  0  0  0  0  0  0  0  0
    2.2945   -0.4727   -0.0334 C   0  0  0  0  0  0  0  0  0  0  0  0
    2.9498    0.7512   -0.1191 C   0  0  0  0  0  0  0  0  0  0  0  0
    3.6902    3.3947    0.5634 H   0  0  0  0  0  0  0  0  0  0  0  0
    5.0691    4.0324   -0.3404 H   0  0  0  0  0  0  0  0  0  0  0  0
    3.7810    3.2144   -1.2329 H   0  0  0  0  0  0  0  0  0  0  0  0
    6.1798   -0.2520    0.1347 H   0  0  0  0  0  0  0  0  0  0  0  0
    5.0737   -2.4418    0.2910 H   0  0  0  0  0  0  0  0  0  0  0  0
    3.6135   -4.3683   -0.4944 H   0  0  0  0  0  0  0  0  0  0  0  0
    2.1995   -4.9532    0.3922 H   0  0  0  0  0  0  0  0  0  0  0  0
    3.5268   -4.1973    1.2837 H   0  0  0  0  0  0  0  0  0  0  0  0
   -1.3884   -2.6901   -0.0106 H   0  0  0  0  0  0  0  0  0  0  0  0
   -3.8927    2.2666   -2.3161 H   0  0  0  0  0  0  0  0  0  0  0  0
   -3.4351    0.5696   -2.5274 H   0  0  0  0  0  0  0  0  0  0  0  0
   -2.2126    1.8278   -2.6706 H   0  0  0  0  0  0  0  0  0  0  0  0
   -1.4103    3.1097   -0.6618 H   0  0  0  0  0  0  0  0  0  0  0  0
   -2.0368    2.7572    0.9476 H   0  0  0  0  0  0  0  0  0  0  0  0
   -3.0692    3.5741   -0.2404 H   0  0  0  0  0  0  0  0  0  0  0  0
   -3.8747    1.1453    1.2745 H   0  0  0  0  0  0  0  0  0  0  0  0
   -4.9203    1.6038   -0.0847 H   0  0  0  0  0  0  0  0  0  0  0  0
   -5.6891   -2.0280   -0.2195 H   0  0  0  0  0  0  0  0  0  0  0  0
   -6.2631   -0.4389   -0.7834 H   0  0  0  0  0  0  0  0  0  0  0  0
   -6.0998   -0.7593    0.9626 H   0  0  0  0  0  0  0  0  0  0  0  0
    2.3262    1.6329   -0.2345 H   0  0  0  0  0  0  0  0  0  0  0  0
  1  2  1  0
  2  3  1  0
  3  4  2  0
  4  5  1  0
  5  6  2  0
  6  7  1  0
  7  8  1  0
  7  9  2  0
  9 10  1  0
 10 11  1  0
 11 12  1  0
 12 13  2  0
 13 14  1  0
 14 15  1  0
 14 16  1  0
 14 17  1  0
 17 18  1  0
 18 19  2  0
 18 20  1  0
 10 21  2  0
 21 22  1  0
 22 23  2  0
 23  3  1  0
 22  6  1  0
 19 12  1  0
  1 24  1  0
  1 25  1  0
  1 26  1  0
  4 27  1  0
  5 28  1  0
  8 29  1  0
  8 30  1  0
  8 31  1  0
 11 32  1  0
 15 33  1  0
 15 34  1  0
 15 35  1  0
 16 36  1  0
 16 37  1  0
 16 38  1  0
 17 39  1  0
 17 40  1  0
 20 41  1  0
 20 42  1  0
 20 43  1  0
 23 44  1  0
M  END
>  <Unnamed: 0>  (172) 
1139

>  <ID>  (172) 
TRAIN_1139

>  <Canonical_Smiles>  (172) 
COc1ccc2c(C)nc(NC3=NC(C)(C)CC(=N3)C)nc2c1

>  <Inhibition>  (172) 
42.6

>  <TDC_conf_true_inhibitor>  (172) 
1

>  <TDC_conf_non_inhibitor>  (172) 
0

>  <split>  (172) 
1

$$$$
172
     RDKit          3D

 41 43  0  0  0  0  0  0  0  0999 V2000
    3.4030    2.5285   -0.5978 C   0  0  0  0  0  0  0  0  0  0  0  0
    2.8173    2.0198    0.7108 C   0  0  0  0  0  0  0  0  0  0  0  0
    1.9922    0.7665    0.5184 C   0  0  0  0  0  0  0  0  0  0  0  0
    0.6642    1.0094    0.4584 N   0  0  0  0  0  0  0  0  0  0  0  0
   -0.1246   -0.0658    0.2600 C   0  0  0  0  0  0  0  0  0  0  0  0
    0.3186   -1.3679    0.0803 C   0  0  0  0  0  0  0  0  0  0  0  0
   -0.8350   -2.1823   -0.1313 C   0  0  0  0  0  0  0  0  0  0  0  0
   -0.8216   -3.6553   -0.3613 C   0  0  0  0  0  0  0  0  0  0  0  0
   -1.9524   -1.3601   -0.0249 C   0  0  0  0  0  0  0  0  0  0  0  0
   -3.3841   -1.7856    0.0162 C   0  0  0  0  0  0  0  0  0  0  0  0
   -1.5128   -0.0405    0.1270 N   0  0  0  0  0  0  0  0  0  0  0  0
   -2.3170    1.1409    0.1368 C   0  0  0  0  0  0  0  0  0  0  0  0
   -3.4844    1.2397   -0.6257 C   0  0  0  0  0  0  0  0  0  0  0  0
   -4.2380    2.4121   -0.5885 C   0  0  0  0  0  0  0  0  0  0  0  0
   -3.7973    3.4542    0.2080 C   0  0  0  0  0  0  0  0  0  0  0  0
   -2.6721    3.4026    0.9484 N   0  0  0  0  0  0  0  0  0  0  0  0
   -1.9502    2.2531    0.8891 C   0  0  0  0  0  0  0  0  0  0  0  0
    1.7114   -1.6048    0.1380 C   0  0  0  0  0  0  0  0  0  0  0  0
    2.2257   -2.9091   -0.0384 N   0  0  0  0  0  0  0  0  0  0  0  0
    2.5688   -0.5078    0.3839 C   0  0  0  0  0  0  0  0  0  0  0  0
    4.0607   -0.7138    0.4161 C   0  0  0  0  0  0  0  0  0  0  0  0
    4.0905    1.8032   -1.0438 H   0  0  0  0  0  0  0  0  0  0  0  0
    3.9574    3.4568   -0.4273 H   0  0  0  0  0  0  0  0  0  0  0  0
    2.6137    2.7344   -1.3290 H   0  0  0  0  0  0  0  0  0  0  0  0
    3.6009    1.8619    1.4582 H   0  0  0  0  0  0  0  0  0  0  0  0
    2.1747    2.8052    1.1301 H   0  0  0  0  0  0  0  0  0  0  0  0
   -1.8082   -4.0321   -0.6471 H   0  0  0  0  0  0  0  0  0  0  0  0
   -0.5081   -4.1797    0.5469 H   0  0  0  0  0  0  0  0  0  0  0  0
   -0.1329   -3.9128   -1.1722 H   0  0  0  0  0  0  0  0  0  0  0  0
   -3.4749   -2.7926    0.4376 H   0  0  0  0  0  0  0  0  0  0  0  0
   -3.8086   -1.8100   -0.9918 H   0  0  0  0  0  0  0  0  0  0  0  0
   -3.9897   -1.1355    0.6541 H   0  0  0  0  0  0  0  0  0  0  0  0
   -3.8020    0.4463   -1.2934 H   0  0  0  0  0  0  0  0  0  0  0  0
   -5.1413    2.5141   -1.1796 H   0  0  0  0  0  0  0  0  0  0  0  0
   -4.3495    4.3874    0.2682 H   0  0  0  0  0  0  0  0  0  0  0  0
   -1.0674    2.2661    1.5216 H   0  0  0  0  0  0  0  0  0  0  0  0
    2.8907   -2.9195   -0.8093 H   0  0  0  0  0  0  0  0  0  0  0  0
    2.7218   -3.2040    0.8003 H   0  0  0  0  0  0  0  0  0  0  0  0
    4.3215   -1.6548    0.9111 H   0  0  0  0  0  0  0  0  0  0  0  0
    4.4545   -0.7308   -0.6051 H   0  0  0  0  0  0  0  0  0  0  0  0
    4.5846    0.0627    0.9774 H   0  0  0  0  0  0  0  0  0  0  0  0
  1  2  1  0
  2  3  1  0
  3  4  2  0
  4  5  1  0
  5  6  2  0
  6  7  1  0
  7  8  1  0
  7  9  2  0
  9 10  1  0
  9 11  1  0
 11 12  1  0
 12 13  2  0
 13 14  1  0
 14 15  2  0
 15 16  1  0
 16 17  2  0
  6 18  1  0
 18 19  1  0
 18 20  2  0
 20 21  1  0
 20  3  1  0
 11  5  1  0
 17 12  1  0
  1 22  1  0
  1 23  1  0
  1 24  1  0
  2 25  1  0
  2 26  1  0
  8 27  1  0
  8 28  1  0
  8 29  1  0
 10 30  1  0
 10 31  1  0
 10 32  1  0
 13 33  1  0
 14 34  1  0
 15 35  1  0
 17 36  1  0
 19 37  1  0
 19 38  1  0
 21 39  1  0
 21 40  1  0
 21 41  1  0
M  END
>  <Unnamed: 0>  (173) 
1140

>  <ID>  (173) 
TRAIN_1140

>  <Canonical_Smiles>  (173) 
CCc1nc2c(c(C)c(C)n2c3cccnc3)c(N)c1C

>  <Inhibition>  (173) 
85.3

>  <TDC_conf_true_inhibitor>  (173) 
1

>  <TDC_conf_non_inhibitor>  (173) 
0

>  <split>  (173) 
1

$$$$
173
     RDKit          3D

 54 56  0  0  0  0  0  0  0  0999 V2000
    7.6543   -0.1363    0.3127 C   0  0  0  0  0  0  0  0  0  0  0  0
    7.2902   -0.4373    1.7583 C   0  0  0  0  0  0  0  0  0  0  0  0
    5.7817   -0.5470    1.9969 C   0  0  0  0  0  0  0  0  0  0  0  0
    5.0484    0.7761    1.7750 C   0  0  0  0  0  0  0  0  0  0  0  0
    3.2797    0.6390    2.1924 S   0  0  0  0  0  0  0  0  0  0  0  0
    2.6049    0.0953    0.6392 C   0  0  0  0  0  0  0  0  0  0  0  0
    3.4077   -0.5204   -0.2389 N   0  0  0  0  0  0  0  0  0  0  0  0
    2.8431   -0.9065   -1.3824 C   0  0  0  0  0  0  0  0  0  0  0  0
    3.6681   -1.5639   -2.2956 N   0  0  0  0  0  0  0  0  0  0  0  0
    1.5087   -0.7170   -1.6568 C   0  0  0  0  0  0  0  0  0  0  0  0
    0.7435   -0.0839   -0.6949 C   0  0  0  0  0  0  0  0  0  0  0  0
    1.2988    0.3358    0.4526 N   0  0  0  0  0  0  0  0  0  0  0  0
   -0.6313    0.1498   -0.9446 N   0  0  0  0  0  0  0  0  0  0  0  0
   -1.2088    1.1255   -0.0069 C   0  0  0  0  0  0  0  0  0  0  0  0
   -2.6430    1.4602   -0.4281 C   0  0  0  0  0  0  0  0  0  0  0  0
   -3.5608    0.2149   -0.5787 C   0  0  0  0  0  0  0  0  0  0  0  0
   -4.8762    0.6782   -1.2658 C   0  0  0  0  0  0  0  0  0  0  0  0
   -6.0210   -0.3217   -1.1655 C   0  0  0  0  0  0  0  0  0  0  0  0
   -6.7748   -0.2441    0.0695 N   0  0  0  0  0  0  0  0  0  0  0  0
   -6.3264   -0.1559    1.3501 C   0  0  0  0  0  0  0  0  0  0  0  0
   -7.1245   -0.3589    2.2660 O   0  0  0  0  0  0  0  0  0  0  0  0
   -4.9025    0.2720    1.6306 C   0  0  0  0  0  0  0  0  0  0  0  0
   -3.8548   -0.4527    0.7934 C   0  0  0  0  0  0  0  0  0  0  0  0
   -2.8221   -0.7992   -1.4967 C   0  0  0  0  0  0  0  0  0  0  0  0
   -1.3933   -1.1046   -1.0354 C   0  0  0  0  0  0  0  0  0  0  0  0
    8.7398   -0.1776    0.1836 H   0  0  0  0  0  0  0  0  0  0  0  0
    7.3249    0.8627    0.0168 H   0  0  0  0  0  0  0  0  0  0  0  0
    7.2049   -0.8649   -0.3684 H   0  0  0  0  0  0  0  0  0  0  0  0
    7.7567   -1.3879    2.0435 H   0  0  0  0  0  0  0  0  0  0  0  0
    7.7170    0.3338    2.4100 H   0  0  0  0  0  0  0  0  0  0  0  0
    5.3762   -1.3338    1.3506 H   0  0  0  0  0  0  0  0  0  0  0  0
    5.6305   -0.8781    3.0317 H   0  0  0  0  0  0  0  0  0  0  0  0
    5.1657    1.1500    0.7531 H   0  0  0  0  0  0  0  0  0  0  0  0
    5.4733    1.5377    2.4389 H   0  0  0  0  0  0  0  0  0  0  0  0
    3.6246   -1.1445   -3.2181 H   0  0  0  0  0  0  0  0  0  0  0  0
    4.6126   -1.5596   -1.9198 H   0  0  0  0  0  0  0  0  0  0  0  0
    1.0807   -1.0401   -2.5952 H   0  0  0  0  0  0  0  0  0  0  0  0
   -1.1938    0.7493    1.0229 H   0  0  0  0  0  0  0  0  0  0  0  0
   -0.6308    2.0590   -0.0282 H   0  0  0  0  0  0  0  0  0  0  0  0
   -3.0684    2.1713    0.2896 H   0  0  0  0  0  0  0  0  0  0  0  0
   -2.5985    1.9862   -1.3919 H   0  0  0  0  0  0  0  0  0  0  0  0
   -4.6722    0.8654   -2.3284 H   0  0  0  0  0  0  0  0  0  0  0  0
   -5.2034    1.6420   -0.8536 H   0  0  0  0  0  0  0  0  0  0  0  0
   -5.6855   -1.3546   -1.2950 H   0  0  0  0  0  0  0  0  0  0  0  0
   -6.7442   -0.1120   -1.9619 H   0  0  0  0  0  0  0  0  0  0  0  0
   -7.7366   -0.5622    0.0403 H   0  0  0  0  0  0  0  0  0  0  0  0
   -4.8355    1.3600    1.5418 H   0  0  0  0  0  0  0  0  0  0  0  0
   -4.7131    0.0300    2.6839 H   0  0  0  0  0  0  0  0  0  0  0  0
   -4.1746   -1.4921    0.6441 H   0  0  0  0  0  0  0  0  0  0  0  0
   -2.9343   -0.5166    1.3832 H   0  0  0  0  0  0  0  0  0  0  0  0
   -2.7704   -0.3947   -2.5164 H   0  0  0  0  0  0  0  0  0  0  0  0
   -3.3825   -1.7384   -1.5659 H   0  0  0  0  0  0  0  0  0  0  0  0
   -0.9521   -1.7903   -1.7687 H   0  0  0  0  0  0  0  0  0  0  0  0
   -1.4009   -1.6243   -0.0690 H   0  0  0  0  0  0  0  0  0  0  0  0
  1  2  1  0
  2  3  1  0
  3  4  1  0
  4  5  1  0
  5  6  1  0
  6  7  2  0
  7  8  1  0
  8  9  1  0
  8 10  2  0
 10 11  1  0
 11 12  2  0
 11 13  1  0
 13 14  1  0
 14 15  1  0
 15 16  1  0
 16 17  1  0
 17 18  1  0
 18 19  1  0
 19 20  1  0
 20 21  2  0
 20 22  1  0
 22 23  1  0
 16 24  1  0
 24 25  1  0
 12  6  1  0
 25 13  1  0
 23 16  1  0
  1 26  1  0
  1 27  1  0
  1 28  1  0
  2 29  1  0
  2 30  1  0
  3 31  1  0
  3 32  1  0
  4 33  1  0
  4 34  1  0
  9 35  1  0
  9 36  1  0
 10 37  1  0
 14 38  1  0
 14 39  1  0
 15 40  1  0
 15 41  1  0
 17 42  1  0
 17 43  1  0
 18 44  1  0
 18 45  1  0
 19 46  1  0
 22 47  1  0
 22 48  1  0
 23 49  1  0
 23 50  1  0
 24 51  1  0
 24 52  1  0
 25 53  1  0
 25 54  1  0
M  END
>  <Unnamed: 0>  (174) 
1141

>  <ID>  (174) 
TRAIN_1141

>  <Canonical_Smiles>  (174) 
CCCCSc1nc(N)cc(n1)N2CCC3(CCNC(=O)CC3)CC2

>  <Inhibition>  (174) 
46.5

>  <TDC_conf_true_inhibitor>  (174) 
0

>  <TDC_conf_non_inhibitor>  (174) 
1

>  <split>  (174) 
1

$$$$
174
     RDKit          3D

 53 57  0  0  0  0  0  0  0  0999 V2000
    2.7835   -0.1049    0.7886 C   0  0  0  0  0  0  0  0  0  0  0  0
    2.0512    0.5802   -0.3731 C   0  0  0  0  0  0  0  0  0  0  0  0
    1.1381    1.6094    0.0958 N   0  0  0  0  0  0  0  0  0  0  0  0
    1.5294    2.8731    0.4387 C   0  0  0  0  0  0  0  0  0  0  0  0
    0.5077    3.6192    0.7765 N   0  0  0  0  0  0  0  0  0  0  0  0
   -0.6006    2.8080    0.6480 C   0  0  0  0  0  0  0  0  0  0  0  0
   -1.9434    3.3083    0.9095 C   0  0  0  0  0  0  0  0  0  0  0  0
   -2.9414    2.5115    1.4850 C   0  0  0  0  0  0  0  0  0  0  0  0
   -4.2188    3.0295    1.7193 C   0  0  0  0  0  0  0  0  0  0  0  0
   -4.5084    4.3523    1.3905 C   0  0  0  0  0  0  0  0  0  0  0  0
   -3.5205    5.1611    0.8338 C   0  0  0  0  0  0  0  0  0  0  0  0
   -2.2447    4.6423    0.5990 C   0  0  0  0  0  0  0  0  0  0  0  0
   -0.2368    1.5364    0.2127 C   0  0  0  0  0  0  0  0  0  0  0  0
   -1.0321    0.3692   -0.1554 C   0  0  0  0  0  0  0  0  0  0  0  0
   -0.9913   -0.7972    0.6168 C   0  0  0  0  0  0  0  0  0  0  0  0
   -1.7522   -1.9168    0.2602 C   0  0  0  0  0  0  0  0  0  0  0  0
   -2.5690   -1.8741   -0.8774 C   0  0  0  0  0  0  0  0  0  0  0  0
   -2.6178   -0.7027   -1.6474 C   0  0  0  0  0  0  0  0  0  0  0  0
   -1.8540    0.4106   -1.2856 C   0  0  0  0  0  0  0  0  0  0  0  0
   -3.3506   -2.9937   -1.2634 N   0  0  0  0  0  0  0  0  0  0  0  0
   -3.4549   -4.2257   -0.6619 C   0  0  0  0  0  0  0  0  0  0  0  0
   -4.2864   -4.9967   -1.3256 N   0  0  0  0  0  0  0  0  0  0  0  0
   -4.6822   -4.1925   -2.3494 C   0  0  0  0  0  0  0  0  0  0  0  0
   -4.1477   -2.9716   -2.3619 N   0  0  0  0  0  0  0  0  0  0  0  0
    3.6207   -1.2279    0.3503 N   0  0  0  0  0  0  0  0  0  0  0  0
    4.7744   -0.8237   -0.4575 C   0  0  0  0  0  0  0  0  0  0  0  0
    5.6816   -2.0459   -0.4179 C   0  0  0  0  0  0  0  0  0  0  0  0
    5.2636   -2.8167    0.8288 C   0  0  0  0  0  0  0  0  0  0  0  0
    4.1978   -1.9548    1.4849 C   0  0  0  0  0  0  0  0  0  0  0  0
    2.0338   -0.4838    1.4944 H   0  0  0  0  0  0  0  0  0  0  0  0
    3.3796    0.6331    1.3420 H   0  0  0  0  0  0  0  0  0  0  0  0
    1.4858   -0.1449   -0.9674 H   0  0  0  0  0  0  0  0  0  0  0  0
    2.7584    1.0718   -1.0518 H   0  0  0  0  0  0  0  0  0  0  0  0
    2.5623    3.1962    0.4185 H   0  0  0  0  0  0  0  0  0  0  0  0
   -2.7371    1.4843    1.7718 H   0  0  0  0  0  0  0  0  0  0  0  0
   -4.9850    2.3998    2.1637 H   0  0  0  0  0  0  0  0  0  0  0  0
   -5.5009    4.7547    1.5750 H   0  0  0  0  0  0  0  0  0  0  0  0
   -3.7377    6.1961    0.5845 H   0  0  0  0  0  0  0  0  0  0  0  0
   -1.4779    5.2846    0.1698 H   0  0  0  0  0  0  0  0  0  0  0  0
   -0.3741   -0.8396    1.5114 H   0  0  0  0  0  0  0  0  0  0  0  0
   -1.6819   -2.7953    0.8944 H   0  0  0  0  0  0  0  0  0  0  0  0
   -3.2479   -0.6370   -2.5332 H   0  0  0  0  0  0  0  0  0  0  0  0
   -1.9085    1.3128   -1.8922 H   0  0  0  0  0  0  0  0  0  0  0  0
   -2.9201   -4.5055    0.2327 H   0  0  0  0  0  0  0  0  0  0  0  0
   -5.3835   -4.5059   -3.1126 H   0  0  0  0  0  0  0  0  0  0  0  0
    4.4954   -0.5733   -1.4857 H   0  0  0  0  0  0  0  0  0  0  0  0
    5.2943    0.0365   -0.0170 H   0  0  0  0  0  0  0  0  0  0  0  0
    6.7367   -1.7560   -0.3777 H   0  0  0  0  0  0  0  0  0  0  0  0
    5.5382   -2.6703   -1.3073 H   0  0  0  0  0  0  0  0  0  0  0  0
    4.8500   -3.7904    0.5401 H   0  0  0  0  0  0  0  0  0  0  0  0
    6.1093   -2.9970    1.4999 H   0  0  0  0  0  0  0  0  0  0  0  0
    4.6627   -1.2727    2.2084 H   0  0  0  0  0  0  0  0  0  0  0  0
    3.4531   -2.5642    2.0065 H   0  0  0  0  0  0  0  0  0  0  0  0
  1  2  1  0
  2  3  1  0
  3  4  1  0
  4  5  2  0
  5  6  1  0
  6  7  1  0
  7  8  2  0
  8  9  1  0
  9 10  2  0
 10 11  1  0
 11 12  2  0
  6 13  2  0
 13 14  1  0
 14 15  2  0
 15 16  1  0
 16 17  2  0
 17 18  1  0
 18 19  2  0
 17 20  1  0
 20 21  1  0
 21 22  2  0
 22 23  1  0
 23 24  2  0
  1 25  1  0
 25 26  1  0
 26 27  1  0
 27 28  1  0
 28 29  1  0
 13  3  1  0
 12  7  1  0
 19 14  1  0
 24 20  1  0
 29 25  1  0
  1 30  1  0
  1 31  1  0
  2 32  1  0
  2 33  1  0
  4 34  1  0
  8 35  1  0
  9 36  1  0
 10 37  1  0
 11 38  1  0
 12 39  1  0
 15 40  1  0
 16 41  1  0
 18 42  1  0
 19 43  1  0
 21 44  1  0
 23 45  1  0
 26 46  1  0
 26 47  1  0
 27 48  1  0
 27 49  1  0
 28 50  1  0
 28 51  1  0
 29 52  1  0
 29 53  1  0
M  END
>  <Unnamed: 0>  (175) 
1142

>  <ID>  (175) 
TRAIN_1142

>  <Canonical_Smiles>  (175) 
C(Cn1cnc(c2ccccc2)c1c3ccc(cc3)n4cncn4)N5CCCC5

>  <Inhibition>  (175) 
88.3

>  <TDC_conf_true_inhibitor>  (175) 
1

>  <TDC_conf_non_inhibitor>  (175) 
0

>  <split>  (175) 
1

$$$$
175
     RDKit          3D

 37 38  0  0  0  0  0  0  0  0999 V2000
    6.5356    0.5817   -1.6278 N   0  0  0  0  0  0  0  0  0  0  0  0
    5.7179    0.2431   -0.6171 C   0  0  0  0  0  0  0  0  0  0  0  0
    4.4635    0.6140   -0.5586 N   0  0  0  0  0  0  0  0  0  0  0  0
    3.8671    0.1234    0.5926 C   0  0  0  0  0  0  0  0  0  0  0  0
    2.4244    0.4285    0.8414 C   0  0  0  0  0  0  0  0  0  0  0  0
    1.5072   -0.2738   -0.1679 C   0  0  0  0  0  0  0  0  0  0  0  0
    0.0912   -0.0323    0.1534 N   0  0  0  0  0  0  0  0  0  0  0  0
   -0.7827   -0.6627   -0.8425 C   0  0  0  0  0  0  0  0  0  0  0  0
   -2.2995   -0.3905   -0.6494 C   0  0  0  0  0  0  0  0  0  0  0  0
   -2.9992   -1.0570   -1.7247 O   0  0  0  0  0  0  0  0  0  0  0  0
   -2.8346   -0.9772    0.6691 C   0  0  0  0  0  0  0  0  0  0  0  0
   -4.3096   -0.6220    0.8770 C   0  0  0  0  0  0  0  0  0  0  0  0
   -4.5530    0.8784    0.7149 C   0  0  0  0  0  0  0  0  0  0  0  0
   -4.0777    1.3722   -0.5820 N   0  0  0  0  0  0  0  0  0  0  0  0
   -2.6279    1.1226   -0.7171 C   0  0  0  0  0  0  0  0  0  0  0  0
    4.7074   -0.6145    1.4045 C   0  0  0  0  0  0  0  0  0  0  0  0
    6.2702   -0.6955    0.7085 S   0  0  0  0  0  0  0  0  0  0  0  0
    6.2108    1.3656   -2.1830 H   0  0  0  0  0  0  0  0  0  0  0  0
    7.5264    0.6154   -1.4225 H   0  0  0  0  0  0  0  0  0  0  0  0
    2.1581    0.1236    1.8617 H   0  0  0  0  0  0  0  0  0  0  0  0
    2.2769    1.5144    0.7868 H   0  0  0  0  0  0  0  0  0  0  0  0
    1.7290    0.0994   -1.1755 H   0  0  0  0  0  0  0  0  0  0  0  0
    1.7096   -1.3524   -0.1628 H   0  0  0  0  0  0  0  0  0  0  0  0
   -0.1089   -0.4202    1.0755 H   0  0  0  0  0  0  0  0  0  0  0  0
   -0.6196   -1.7489   -0.8465 H   0  0  0  0  0  0  0  0  0  0  0  0
   -0.5034   -0.3152   -1.8464 H   0  0  0  0  0  0  0  0  0  0  0  0
   -2.7654   -0.5974   -2.5504 H   0  0  0  0  0  0  0  0  0  0  0  0
   -2.2642   -0.5933    1.5227 H   0  0  0  0  0  0  0  0  0  0  0  0
   -2.7342   -2.0693    0.6690 H   0  0  0  0  0  0  0  0  0  0  0  0
   -4.9276   -1.1753    0.1588 H   0  0  0  0  0  0  0  0  0  0  0  0
   -4.6261   -0.9415    1.8765 H   0  0  0  0  0  0  0  0  0  0  0  0
   -5.6265    1.0814    0.7959 H   0  0  0  0  0  0  0  0  0  0  0  0
   -4.0672    1.4339    1.5261 H   0  0  0  0  0  0  0  0  0  0  0  0
   -4.5476    0.8255   -1.3082 H   0  0  0  0  0  0  0  0  0  0  0  0
   -2.3202    1.5242   -1.6897 H   0  0  0  0  0  0  0  0  0  0  0  0
   -2.0864    1.6870    0.0513 H   0  0  0  0  0  0  0  0  0  0  0  0
    4.4859   -1.0955    2.3461 H   0  0  0  0  0  0  0  0  0  0  0  0
  1  2  1  0
  2  3  2  0
  3  4  1  0
  4  5  1  0
  5  6  1  0
  6  7  1  0
  7  8  1  0
  8  9  1  0
  9 10  1  0
  9 11  1  0
 11 12  1  0
 12 13  1  0
 13 14  1  0
 14 15  1  0
  4 16  2  0
 16 17  1  0
 17  2  1  0
 15  9  1  0
  1 18  1  0
  1 19  1  0
  5 20  1  0
  5 21  1  0
  6 22  1  0
  6 23  1  0
  7 24  1  0
  8 25  1  0
  8 26  1  0
 10 27  1  0
 11 28  1  0
 11 29  1  0
 12 30  1  0
 12 31  1  0
 13 32  1  0
 13 33  1  0
 14 34  1  0
 15 35  1  0
 15 36  1  0
 16 37  1  0
M  END
>  <Unnamed: 0>  (176) 
1143

>  <ID>  (176) 
TRAIN_1143

>  <Canonical_Smiles>  (176) 
Nc1nc(CCNCC2(O)CCCNC2)cs1

>  <Inhibition>  (176) 
10.5

>  <TDC_conf_true_inhibitor>  (176) 
0

>  <TDC_conf_non_inhibitor>  (176) 
1

>  <split>  (176) 
1

$$$$
176
     RDKit          3D

 36 39  0  0  0  0  0  0  0  0999 V2000
    5.2542    1.1718   -0.2749 C   0  0  0  0  0  0  0  0  0  0  0  0
    5.0341   -0.2573    0.0594 C   0  0  0  0  0  0  0  0  0  0  0  0
    6.0358   -1.0646    0.3655 N   0  0  0  0  0  0  0  0  0  0  0  0
    5.4790   -2.2649    0.6816 C   0  0  0  0  0  0  0  0  0  0  0  0
    4.1173   -2.2027    0.5631 C   0  0  0  0  0  0  0  0  0  0  0  0
    3.8090   -0.9214    0.1341 N   0  0  0  0  0  0  0  0  0  0  0  0
    2.4729   -0.4957   -0.1356 C   0  0  0  0  0  0  0  0  0  0  0  0
    2.1521    0.7377   -0.6756 C   0  0  0  0  0  0  0  0  0  0  0  0
    0.8074    1.0529   -0.9018 C   0  0  0  0  0  0  0  0  0  0  0  0
   -0.1827    0.1330   -0.5853 C   0  0  0  0  0  0  0  0  0  0  0  0
    0.1616   -1.0635   -0.0709 N   0  0  0  0  0  0  0  0  0  0  0  0
    1.4876   -1.3774    0.1513 N   0  0  0  0  0  0  0  0  0  0  0  0
   -1.6073    0.3858   -0.7996 C   0  0  0  0  0  0  0  0  0  0  0  0
   -2.1090    0.9522   -1.9843 C   0  0  0  0  0  0  0  0  0  0  0  0
   -3.4716    1.1774   -2.1172 C   0  0  0  0  0  0  0  0  0  0  0  0
   -4.4058    0.9048   -1.1858 N   0  0  0  0  0  0  0  0  0  0  0  0
   -3.8961    0.3577   -0.0644 C   0  0  0  0  0  0  0  0  0  0  0  0
   -2.5571    0.0725    0.2016 C   0  0  0  0  0  0  0  0  0  0  0  0
   -2.5206   -0.4847    1.5153 C   0  0  0  0  0  0  0  0  0  0  0  0
   -3.8112   -0.5275    1.9987 C   0  0  0  0  0  0  0  0  0  0  0  0
   -4.6339   -0.0170    1.0300 N   0  0  0  0  0  0  0  0  0  0  0  0
   -6.0680    0.1140    1.1274 C   0  0  0  0  0  0  0  0  0  0  0  0
    5.0376    1.3662   -1.3290 H   0  0  0  0  0  0  0  0  0  0  0  0
    6.3043    1.4378   -0.1098 H   0  0  0  0  0  0  0  0  0  0  0  0
    4.6567    1.8279    0.3643 H   0  0  0  0  0  0  0  0  0  0  0  0
    6.0840   -3.1110    0.9808 H   0  0  0  0  0  0  0  0  0  0  0  0
    3.3518   -2.9489    0.7280 H   0  0  0  0  0  0  0  0  0  0  0  0
    2.8833    1.4803   -0.9528 H   0  0  0  0  0  0  0  0  0  0  0  0
    0.5481    2.0237   -1.3142 H   0  0  0  0  0  0  0  0  0  0  0  0
   -1.4489    1.2020   -2.8090 H   0  0  0  0  0  0  0  0  0  0  0  0
   -3.8653    1.6083   -3.0352 H   0  0  0  0  0  0  0  0  0  0  0  0
   -1.6406   -0.8256    2.0467 H   0  0  0  0  0  0  0  0  0  0  0  0
   -4.2011   -0.8822    2.9439 H   0  0  0  0  0  0  0  0  0  0  0  0
   -6.3274    1.1714    1.0310 H   0  0  0  0  0  0  0  0  0  0  0  0
   -6.5256   -0.4710    0.3255 H   0  0  0  0  0  0  0  0  0  0  0  0
   -6.4046   -0.2620    2.0970 H   0  0  0  0  0  0  0  0  0  0  0  0
  1  2  1  0
  2  3  2  0
  3  4  1  0
  4  5  2  0
  5  6  1  0
  6  7  1  0
  7  8  2  0
  8  9  1  0
  9 10  2  0
 10 11  1  0
 11 12  2  0
 10 13  1  0
 13 14  2  0
 14 15  1  0
 15 16  2  0
 16 17  1  0
 17 18  2  0
 18 19  1  0
 19 20  2  0
 20 21  1  0
 21 22  1  0
  6  2  1  0
 12  7  1  0
 18 13  1  0
 21 17  1  0
  1 23  1  0
  1 24  1  0
  1 25  1  0
  4 26  1  0
  5 27  1  0
  8 28  1  0
  9 29  1  0
 14 30  1  0
 15 31  1  0
 19 32  1  0
 20 33  1  0
 22 34  1  0
 22 35  1  0
 22 36  1  0
M  END
>  <Unnamed: 0>  (177) 
1154

>  <ID>  (177) 
TRAIN_1154

>  <Canonical_Smiles>  (177) 
Cc1nccn1c2ccc(nn2)c3ccnc4c3ccn4C

>  <Inhibition>  (177) 
25.3

>  <TDC_conf_true_inhibitor>  (177) 
0

>  <TDC_conf_non_inhibitor>  (177) 
1

>  <split>  (177) 
1

$$$$
177
     RDKit          3D

 60 63  0  0  0  0  0  0  0  0999 V2000
    3.8196    3.2278    1.4220 C   0  0  0  0  0  0  0  0  0  0  0  0
    3.7151    1.8247    1.1765 O   0  0  0  0  0  0  0  0  0  0  0  0
    4.7726    1.3150    0.5051 C   0  0  0  0  0  0  0  0  0  0  0  0
    5.8097    1.8734    0.1915 O   0  0  0  0  0  0  0  0  0  0  0  0
    4.5314   -0.1149    0.2992 C   0  0  0  0  0  0  0  0  0  0  0  0
    5.2767   -0.9920    1.0878 C   0  0  0  0  0  0  0  0  0  0  0  0
    5.0652   -2.3473    0.9265 C   0  0  0  0  0  0  0  0  0  0  0  0
    5.8297   -3.3395    1.7502 C   0  0  0  0  0  0  0  0  0  0  0  0
    4.1626   -2.8307    0.0435 N   0  0  0  0  0  0  0  0  0  0  0  0
    3.4521   -1.9636   -0.7268 C   0  0  0  0  0  0  0  0  0  0  0  0
    2.5395   -2.5069   -1.6515 N   0  0  0  0  0  0  0  0  0  0  0  0
    2.4397   -3.9577   -1.7196 C   0  0  0  0  0  0  0  0  0  0  0  0
    1.7594   -1.7245   -2.4825 C   0  0  0  0  0  0  0  0  0  0  0  0
    1.0099   -2.2225   -3.3244 O   0  0  0  0  0  0  0  0  0  0  0  0
    1.9030   -0.3525   -2.3443 N   0  0  0  0  0  0  0  0  0  0  0  0
    1.0568    0.5120   -3.1574 C   0  0  0  0  0  0  0  0  0  0  0  0
   -0.0010    1.1117   -2.2894 C   0  0  0  0  0  0  0  0  0  0  0  0
   -1.0192    0.3398   -1.7636 N   0  0  0  0  0  0  0  0  0  0  0  0
   -1.7392    1.1852   -1.0503 C   0  0  0  0  0  0  0  0  0  0  0  0
   -1.2594    2.4699   -1.0624 O   0  0  0  0  0  0  0  0  0  0  0  0
   -0.1449    2.4130   -1.8521 C   0  0  0  0  0  0  0  0  0  0  0  0
    0.6135    3.6648   -2.0237 C   0  0  0  0  0  0  0  0  0  0  0  0
   -2.9405    0.9339   -0.2587 C   0  0  0  0  0  0  0  0  0  0  0  0
   -3.4610   -0.3652   -0.1844 C   0  0  0  0  0  0  0  0  0  0  0  0
   -4.6047   -0.6390    0.5702 C   0  0  0  0  0  0  0  0  0  0  0  0
   -5.2572    0.3816    1.2759 C   0  0  0  0  0  0  0  0  0  0  0  0
   -4.7424    1.6816    1.1981 C   0  0  0  0  0  0  0  0  0  0  0  0
   -3.5984    1.9543    0.4403 C   0  0  0  0  0  0  0  0  0  0  0  0
   -6.4985    0.1112    2.1054 C   0  0  0  0  0  0  0  0  0  0  0  0
   -6.2383   -0.9319    3.1961 C   0  0  0  0  0  0  0  0  0  0  0  0
   -7.6762   -0.3074    1.2228 C   0  0  0  0  0  0  0  0  0  0  0  0
    2.8585    0.2635   -1.5492 C   0  0  0  0  0  0  0  0  0  0  0  0
    3.1041    1.4658   -1.6099 O   0  0  0  0  0  0  0  0  0  0  0  0
    3.6173   -0.5962   -0.6367 C   0  0  0  0  0  0  0  0  0  0  0  0
    4.7714    3.4748    1.9021 H   0  0  0  0  0  0  0  0  0  0  0  0
    3.7089    3.7804    0.4844 H   0  0  0  0  0  0  0  0  0  0  0  0
    3.0119    3.5183    2.1000 H   0  0  0  0  0  0  0  0  0  0  0  0
    6.0013   -0.6181    1.8066 H   0  0  0  0  0  0  0  0  0  0  0  0
    5.6393   -4.3600    1.4049 H   0  0  0  0  0  0  0  0  0  0  0  0
    6.9041   -3.1553    1.6685 H   0  0  0  0  0  0  0  0  0  0  0  0
    5.5350   -3.2638    2.7966 H   0  0  0  0  0  0  0  0  0  0  0  0
    1.6848   -4.2813   -2.4412 H   0  0  0  0  0  0  0  0  0  0  0  0
    2.1568   -4.3529   -0.7383 H   0  0  0  0  0  0  0  0  0  0  0  0
    3.4044   -4.3728   -2.0275 H   0  0  0  0  0  0  0  0  0  0  0  0
    1.6714    1.2954   -3.6145 H   0  0  0  0  0  0  0  0  0  0  0  0
    0.5826   -0.0392   -3.9760 H   0  0  0  0  0  0  0  0  0  0  0  0
    1.1321    3.9235   -1.0946 H   0  0  0  0  0  0  0  0  0  0  0  0
    1.3607    3.5711   -2.8189 H   0  0  0  0  0  0  0  0  0  0  0  0
   -0.0553    4.4913   -2.2876 H   0  0  0  0  0  0  0  0  0  0  0  0
   -2.9717   -1.1782   -0.7204 H   0  0  0  0  0  0  0  0  0  0  0  0
   -4.9772   -1.6594    0.5977 H   0  0  0  0  0  0  0  0  0  0  0  0
   -5.2274    2.4982    1.7287 H   0  0  0  0  0  0  0  0  0  0  0  0
   -3.2267    2.9769    0.4010 H   0  0  0  0  0  0  0  0  0  0  0  0
   -6.7884    1.0416    2.6141 H   0  0  0  0  0  0  0  0  0  0  0  0
   -6.0130   -1.9176    2.7742 H   0  0  0  0  0  0  0  0  0  0  0  0
   -7.1178   -1.0401    3.8420 H   0  0  0  0  0  0  0  0  0  0  0  0
   -5.3943   -0.6352    3.8295 H   0  0  0  0  0  0  0  0  0  0  0  0
   -8.5824   -0.4323    1.8234 H   0  0  0  0  0  0  0  0  0  0  0  0
   -7.4861   -1.2561    0.7043 H   0  0  0  0  0  0  0  0  0  0  0  0
   -7.8799    0.4531    0.4624 H   0  0  0  0  0  0  0  0  0  0  0  0
  1  2  1  0
  2  3  1  0
  3  4  2  0
  3  5  1  0
  5  6  2  0
  6  7  1  0
  7  8  1  0
  7  9  2  0
  9 10  1  0
 10 11  1  0
 11 12  1  0
 11 13  1  0
 13 14  2  0
 13 15  1  0
 15 16  1  0
 16 17  1  0
 17 18  1  0
 18 19  2  0
 19 20  1  0
 20 21  1  0
 21 22  1  0
 19 23  1  0
 23 24  2  0
 24 25  1  0
 25 26  2  0
 26 27  1  0
 27 28  2  0
 26 29  1  0
 29 30  1  0
 29 31  1  0
 15 32  1  0
 32 33  2  0
 32 34  1  0
 34  5  1  0
 34 10  2  0
 21 17  2  0
 28 23  1  0
  1 35  1  0
  1 36  1  0
  1 37  1  0
  6 38  1  0
  8 39  1  0
  8 40  1  0
  8 41  1  0
 12 42  1  0
 12 43  1  0
 12 44  1  0
 16 45  1  0
 16 46  1  0
 22 47  1  0
 22 48  1  0
 22 49  1  0
 24 50  1  0
 25 51  1  0
 27 52  1  0
 28 53  1  0
 29 54  1  0
 30 55  1  0
 30 56  1  0
 30 57  1  0
 31 58  1  0
 31 59  1  0
 31 60  1  0
M  END
>  <Unnamed: 0>  (178) 
1157

>  <ID>  (178) 
TRAIN_1157

>  <Canonical_Smiles>  (178) 
COC(=O)c1cc(C)nc2N(C)C(=O)N(Cc3nc(oc3C)c4ccc(cc4)C(C)C)C(=O)c12

>  <Inhibition>  (178) 
55.2

>  <TDC_conf_true_inhibitor>  (178) 
1

>  <TDC_conf_non_inhibitor>  (178) 
0

>  <split>  (178) 
1

$$$$
178
     RDKit          3D

 36 37  0  0  0  0  0  0  0  0999 V2000
   -4.4414   -0.6462   -1.3779 C   0  0  0  0  0  0  0  0  0  0  0  0
   -3.0647   -0.0254   -1.5565 C   0  0  0  0  0  0  0  0  0  0  0  0
   -2.7741    1.0100   -0.5232 C   0  0  0  0  0  0  0  0  0  0  0  0
   -3.0133    2.2973   -0.7963 N   0  0  0  0  0  0  0  0  0  0  0  0
   -2.6592    2.9972    0.3382 O   0  0  0  0  0  0  0  0  0  0  0  0
   -2.2149    2.1325    1.2857 C   0  0  0  0  0  0  0  0  0  0  0  0
   -1.7987    2.7352    2.5666 C   0  0  0  0  0  0  0  0  0  0  0  0
   -2.2504    0.8439    0.7926 C   0  0  0  0  0  0  0  0  0  0  0  0
   -1.8666   -0.4150    1.4778 C   0  0  0  0  0  0  0  0  0  0  0  0
   -0.0784   -0.5213    1.8099 S   0  0  0  0  0  0  0  0  0  0  0  0
    0.5384   -0.6286    0.0986 C   0  0  0  0  0  0  0  0  0  0  0  0
    2.0423   -0.8399    0.0357 C   0  0  0  0  0  0  0  0  0  0  0  0
    2.6900   -0.5117   -1.0380 N   0  0  0  0  0  0  0  0  0  0  0  0
    4.0575   -0.7467   -1.0744 C   0  0  0  0  0  0  0  0  0  0  0  0
    4.7297   -1.2884   -0.0458 C   0  0  0  0  0  0  0  0  0  0  0  0
    3.9887   -1.6406    1.1704 C   0  0  0  0  0  0  0  0  0  0  0  0
    4.5550   -2.0910    2.1579 O   0  0  0  0  0  0  0  0  0  0  0  0
    2.6481   -1.4241    1.1097 N   0  0  0  0  0  0  0  0  0  0  0  0
    4.7977   -0.3634   -2.3466 C   0  0  0  0  0  0  0  0  0  0  0  0
    4.7102    0.9680   -2.6050 F   0  0  0  0  0  0  0  0  0  0  0  0
    4.3114   -1.0150   -3.4345 F   0  0  0  0  0  0  0  0  0  0  0  0
    6.1251   -0.6585   -2.2844 F   0  0  0  0  0  0  0  0  0  0  0  0
   -4.5397   -1.1184   -0.3956 H   0  0  0  0  0  0  0  0  0  0  0  0
   -4.6155   -1.4106   -2.1419 H   0  0  0  0  0  0  0  0  0  0  0  0
   -5.2301    0.1084   -1.4660 H   0  0  0  0  0  0  0  0  0  0  0  0
   -2.3029   -0.8128   -1.5142 H   0  0  0  0  0  0  0  0  0  0  0  0
   -2.9960    0.4148   -2.5593 H   0  0  0  0  0  0  0  0  0  0  0  0
   -2.3349    3.6715    2.7541 H   0  0  0  0  0  0  0  0  0  0  0  0
   -2.0038    2.0588    3.4021 H   0  0  0  0  0  0  0  0  0  0  0  0
   -0.7267    2.9519    2.5525 H   0  0  0  0  0  0  0  0  0  0  0  0
   -2.3873   -0.4775    2.4402 H   0  0  0  0  0  0  0  0  0  0  0  0
   -2.1685   -1.2958    0.9024 H   0  0  0  0  0  0  0  0  0  0  0  0
    0.3014    0.2940   -0.4386 H   0  0  0  0  0  0  0  0  0  0  0  0
    0.0623   -1.4718   -0.4108 H   0  0  0  0  0  0  0  0  0  0  0  0
    5.7960   -1.4751   -0.0488 H   0  0  0  0  0  0  0  0  0  0  0  0
    2.1134   -1.6056    1.9505 H   0  0  0  0  0  0  0  0  0  0  0  0
  1  2  1  0
  2  3  1  0
  3  4  2  0
  4  5  1  0
  5  6  1  0
  6  7  1  0
  6  8  2  0
  8  9  1  0
  9 10  1  0
 10 11  1  0
 11 12  1  0
 12 13  2  0
 13 14  1  0
 14 15  2  0
 15 16  1  0
 16 17  2  0
 16 18  1  0
 14 19  1  0
 19 20  1  0
 19 21  1  0
 19 22  1  0
  8  3  1  0
 18 12  1  0
  1 23  1  0
  1 24  1  0
  1 25  1  0
  2 26  1  0
  2 27  1  0
  7 28  1  0
  7 29  1  0
  7 30  1  0
  9 31  1  0
  9 32  1  0
 11 33  1  0
 11 34  1  0
 15 35  1  0
 18 36  1  0
M  END
>  <Unnamed: 0>  (179) 
1168

>  <ID>  (179) 
TRAIN_1168

>  <Canonical_Smiles>  (179) 
CCc1noc(C)c1CSCC2=NC(=CC(=O)N2)C(F)(F)F

>  <Inhibition>  (179) 
44.4

>  <TDC_conf_true_inhibitor>  (179) 
0

>  <TDC_conf_non_inhibitor>  (179) 
1

>  <split>  (179) 
1

$$$$
179
     RDKit          3D

 57 60  0  0  0  0  0  0  0  0999 V2000
   -7.5015    0.3251   -0.9049 C   0  0  0  0  0  0  0  0  0  0  0  0
   -6.5552    0.8998    0.0478 N   0  0  0  0  0  0  0  0  0  0  0  0
   -5.4899    1.6305   -0.6507 C   0  0  0  0  0  0  0  0  0  0  0  0
   -4.2833    1.8628    0.2570 C   0  0  0  0  0  0  0  0  0  0  0  0
   -3.6242    0.5286    0.6605 C   0  0  0  0  0  0  0  0  0  0  0  0
   -4.6716   -0.6175    0.6908 C   0  0  0  0  0  0  0  0  0  0  0  0
   -6.0695   -0.0917    1.0158 C   0  0  0  0  0  0  0  0  0  0  0  0
   -2.4575    0.1507   -0.2662 C   0  0  0  0  0  0  0  0  0  0  0  0
   -1.6017   -0.6433    0.5812 N   0  0  0  0  0  0  0  0  0  0  0  0
   -0.4026   -1.3041    0.0909 C   0  0  0  0  0  0  0  0  0  0  0  0
    0.7526   -0.3397   -0.2441 C   0  0  0  0  0  0  0  0  0  0  0  0
    0.5605    0.8648   -0.4249 O   0  0  0  0  0  0  0  0  0  0  0  0
    2.0156   -0.9025   -0.3856 N   0  0  0  0  0  0  0  0  0  0  0  0
    2.3169   -2.3262   -0.2157 C   0  0  0  0  0  0  0  0  0  0  0  0
    3.6553   -2.7274   -0.8607 C   0  0  0  0  0  0  0  0  0  0  0  0
    4.8204   -1.9396   -0.4439 N   0  0  0  0  0  0  0  0  0  0  0  0
    4.4652   -0.5737    0.0064 C   0  0  0  0  0  0  0  0  0  0  0  0
    3.1667   -0.0232   -0.6385 C   0  0  0  0  0  0  0  0  0  0  0  0
    5.6251    0.3828   -0.1998 C   0  0  0  0  0  0  0  0  0  0  0  0
    6.3149    0.4410   -1.4215 C   0  0  0  0  0  0  0  0  0  0  0  0
    7.3633    1.3439   -1.6066 C   0  0  0  0  0  0  0  0  0  0  0  0
    7.7326    2.2044   -0.5753 C   0  0  0  0  0  0  0  0  0  0  0  0
    7.0543    2.1631    0.6410 C   0  0  0  0  0  0  0  0  0  0  0  0
    6.0059    1.2598    0.8280 C   0  0  0  0  0  0  0  0  0  0  0  0
   -1.7445   -0.2974    1.9159 C   0  0  0  0  0  0  0  0  0  0  0  0
   -1.0392   -0.6679    2.8400 O   0  0  0  0  0  0  0  0  0  0  0  0
   -2.9070    0.6611    2.0238 C   0  0  0  0  0  0  0  0  0  0  0  0
   -7.0439   -0.4626   -1.5140 H   0  0  0  0  0  0  0  0  0  0  0  0
   -8.3655   -0.0999   -0.3822 H   0  0  0  0  0  0  0  0  0  0  0  0
   -7.8923    1.0983   -1.5760 H   0  0  0  0  0  0  0  0  0  0  0  0
   -5.8834    2.5983   -0.9828 H   0  0  0  0  0  0  0  0  0  0  0  0
   -5.1581    1.0914   -1.5482 H   0  0  0  0  0  0  0  0  0  0  0  0
   -4.6159    2.4075    1.1513 H   0  0  0  0  0  0  0  0  0  0  0  0
   -3.5651    2.5208   -0.2463 H   0  0  0  0  0  0  0  0  0  0  0  0
   -4.7139   -1.1263   -0.2813 H   0  0  0  0  0  0  0  0  0  0  0  0
   -4.3924   -1.3862    1.4217 H   0  0  0  0  0  0  0  0  0  0  0  0
   -6.7675   -0.9325    1.1141 H   0  0  0  0  0  0  0  0  0  0  0  0
   -6.0473    0.3851    2.0039 H   0  0  0  0  0  0  0  0  0  0  0  0
   -2.7616   -0.4281   -1.1434 H   0  0  0  0  0  0  0  0  0  0  0  0
   -1.9037    1.0349   -0.5963 H   0  0  0  0  0  0  0  0  0  0  0  0
   -0.0724   -2.0020    0.8665 H   0  0  0  0  0  0  0  0  0  0  0  0
   -0.6688   -1.8646   -0.8108 H   0  0  0  0  0  0  0  0  0  0  0  0
    2.3436   -2.5250    0.8623 H   0  0  0  0  0  0  0  0  0  0  0  0
    1.5087   -2.9244   -0.6481 H   0  0  0  0  0  0  0  0  0  0  0  0
    3.5614   -2.6233   -1.9489 H   0  0  0  0  0  0  0  0  0  0  0  0
    3.8524   -3.7881   -0.6692 H   0  0  0  0  0  0  0  0  0  0  0  0
    5.3255   -2.4020    0.3106 H   0  0  0  0  0  0  0  0  0  0  0  0
    4.2757   -0.6532    1.0867 H   0  0  0  0  0  0  0  0  0  0  0  0
    3.2733    0.0560   -1.7281 H   0  0  0  0  0  0  0  0  0  0  0  0
    2.9551    0.9845   -0.2617 H   0  0  0  0  0  0  0  0  0  0  0  0
    6.0389   -0.2273   -2.2350 H   0  0  0  0  0  0  0  0  0  0  0  0
    7.8910    1.3739   -2.5560 H   0  0  0  0  0  0  0  0  0  0  0  0
    8.5483    2.9077   -0.7199 H   0  0  0  0  0  0  0  0  0  0  0  0
    7.3400    2.8368    1.4447 H   0  0  0  0  0  0  0  0  0  0  0  0
    5.4854    1.2494    1.7833 H   0  0  0  0  0  0  0  0  0  0  0  0
   -2.4988    1.6662    2.1771 H   0  0  0  0  0  0  0  0  0  0  0  0
   -3.5505    0.3909    2.8655 H   0  0  0  0  0  0  0  0  0  0  0  0
  1  2  1  0
  2  3  1  0
  3  4  1  0
  4  5  1  0
  5  6  1  0
  6  7  1  0
  5  8  1  0
  8  9  1  0
  9 10  1  0
 10 11  1  0
 11 12  2  0
 11 13  1  0
 13 14  1  0
 14 15  1  0
 15 16  1  0
 16 17  1  0
 17 18  1  0
 17 19  1  0
 19 20  2  0
 20 21  1  0
 21 22  2  0
 22 23  1  0
 23 24  2  0
  9 25  1  0
 25 26  2  0
 25 27  1  0
  7  2  1  0
 27  5  1  0
 18 13  1  0
 24 19  1  0
  1 28  1  0
  1 29  1  0
  1 30  1  0
  3 31  1  0
  3 32  1  0
  4 33  1  0
  4 34  1  0
  6 35  1  0
  6 36  1  0
  7 37  1  0
  7 38  1  0
  8 39  1  0
  8 40  1  0
 10 41  1  0
 10 42  1  0
 14 43  1  0
 14 44  1  0
 15 45  1  0
 15 46  1  0
 16 47  1  0
 17 48  1  0
 18 49  1  0
 18 50  1  0
 20 51  1  0
 21 52  1  0
 22 53  1  0
 23 54  1  0
 24 55  1  0
 27 56  1  0
 27 57  1  0
M  END
>  <Unnamed: 0>  (180) 
1171

>  <ID>  (180) 
TRAIN_1171

>  <Canonical_Smiles>  (180) 
CN1CCC2(CC1)CN(CC(=O)N3CCNC(C3)c4ccccc4)C(=O)C2

>  <Inhibition>  (180) 
35.1

>  <TDC_conf_true_inhibitor>  (180) 
0

>  <TDC_conf_non_inhibitor>  (180) 
1

>  <split>  (180) 
1

$$$$
180
     RDKit          3D

 37 39  0  0  0  0  0  0  0  0999 V2000
    0.5527   -0.2046   -1.7545 O   0  0  0  0  0  0  0  0  0  0  0  0
    0.5127   -0.8002   -0.6863 C   0  0  0  0  0  0  0  0  0  0  0  0
    1.6202   -1.4212   -0.1417 N   0  0  0  0  0  0  0  0  0  0  0  0
    2.9164   -1.2845   -0.7896 C   0  0  0  0  0  0  0  0  0  0  0  0
    3.5676    0.0615   -0.4649 C   0  0  2  0  0  0  0  0  0  0  0  0
    4.9008    0.2664   -1.1626 C   0  0  0  0  0  0  0  0  0  0  0  0
    5.5707    1.2563   -0.2431 C   0  0  0  0  0  0  0  0  0  0  0  0
    5.1282    0.7713    1.1215 C   0  0  0  0  0  0  0  0  0  0  0  0
    3.8514    0.1358    0.9518 O   0  0  0  0  0  0  0  0  0  0  0  0
   -0.5867   -0.9761    0.1240 N   0  0  0  0  0  0  0  0  0  0  0  0
   -1.8803   -0.4483   -0.0500 C   0  0  0  0  0  0  0  0  0  0  0  0
   -2.2170    0.4761   -1.0446 C   0  0  0  0  0  0  0  0  0  0  0  0
   -3.5250    0.9644   -1.1544 C   0  0  0  0  0  0  0  0  0  0  0  0
   -4.5050    0.5330   -0.2657 C   0  0  0  0  0  0  0  0  0  0  0  0
   -5.7700    1.0447   -0.4200 O   0  0  0  0  0  0  0  0  0  0  0  0
   -6.7388    0.6195    0.4578 C   0  0  0  0  0  0  0  0  0  0  0  0
   -6.5655   -0.2502    1.4566 C   0  0  0  0  0  0  0  0  0  0  0  0
   -5.2252   -0.8245    1.6628 C   0  0  0  0  0  0  0  0  0  0  0  0
   -5.0093   -1.6237    2.5640 O   0  0  0  0  0  0  0  0  0  0  0  0
   -4.1749   -0.3827    0.7300 C   0  0  0  0  0  0  0  0  0  0  0  0
   -2.8695   -0.8739    0.8438 C   0  0  0  0  0  0  0  0  0  0  0  0
    1.6675   -1.3957    0.8679 H   0  0  0  0  0  0  0  0  0  0  0  0
    3.5307   -2.1079   -0.4096 H   0  0  0  0  0  0  0  0  0  0  0  0
    2.7920   -1.4053   -1.8711 H   0  0  0  0  0  0  0  0  0  0  0  0
    2.8890    0.8916   -0.6964 H   0  0  0  0  0  0  0  0  0  0  0  0
    5.4800   -0.6647   -1.1860 H   0  0  0  0  0  0  0  0  0  0  0  0
    4.7923    0.6304   -2.1879 H   0  0  0  0  0  0  0  0  0  0  0  0
    5.1758    2.2624   -0.4283 H   0  0  0  0  0  0  0  0  0  0  0  0
    6.6579    1.2919   -0.3509 H   0  0  0  0  0  0  0  0  0  0  0  0
    5.0408    1.5848    1.8473 H   0  0  0  0  0  0  0  0  0  0  0  0
    5.8206    0.0219    1.5190 H   0  0  0  0  0  0  0  0  0  0  0  0
   -0.4665   -1.6571    0.8596 H   0  0  0  0  0  0  0  0  0  0  0  0
   -1.4787    0.8417   -1.7528 H   0  0  0  0  0  0  0  0  0  0  0  0
   -3.7689    1.6805   -1.9349 H   0  0  0  0  0  0  0  0  0  0  0  0
   -7.6871    1.0904    0.2331 H   0  0  0  0  0  0  0  0  0  0  0  0
   -7.3583   -0.5567    2.1247 H   0  0  0  0  0  0  0  0  0  0  0  0
   -2.6405   -1.5878    1.6315 H   0  0  0  0  0  0  0  0  0  0  0  0
  1  2  2  0
  2  3  1  0
  3  4  1  0
  4  5  1  0
  5  6  1  0
  6  7  1  0
  7  8  1  0
  8  9  1  0
  2 10  1  0
 10 11  1  0
 11 12  2  0
 12 13  1  0
 13 14  2  0
 14 15  1  0
 15 16  1  0
 16 17  2  0
 17 18  1  0
 18 19  2  0
 18 20  1  0
 20 21  2  0
  9  5  1  0
 21 11  1  0
 20 14  1  0
  3 22  1  0
  4 23  1  0
  4 24  1  0
  5 25  1  6
  6 26  1  0
  6 27  1  0
  7 28  1  0
  7 29  1  0
  8 30  1  0
  8 31  1  0
 10 32  1  0
 12 33  1  0
 13 34  1  0
 16 35  1  0
 17 36  1  0
 21 37  1  0
M  END
>  <Unnamed: 0>  (181) 
1174

>  <ID>  (181) 
TRAIN_1174

>  <Canonical_Smiles>  (181) 
O=C(NC[C@@H]1CCCO1)Nc2ccc3OC=CC(=O)c3c2

>  <Inhibition>  (181) 
26.7

>  <TDC_conf_true_inhibitor>  (181) 
0

>  <TDC_conf_non_inhibitor>  (181) 
1

>  <split>  (181) 
1

$$$$
181
     RDKit          3D

 23 26  0  0  0  0  0  0  0  0999 V2000
    4.8455   -1.6144   -0.1413 Cl  0  0  0  0  0  0  0  0  0  0  0  0
    3.2119   -1.0835   -0.1050 C   0  0  0  0  0  0  0  0  0  0  0  0
    2.3262   -1.8946    0.4223 N   0  0  0  0  0  0  0  0  0  0  0  0
    1.0254   -1.4564    0.4440 C   0  0  0  0  0  0  0  0  0  0  0  0
   -0.2540   -2.4131    1.1046 S   0  0  0  0  0  0  0  0  0  0  0  0
   -1.3726   -1.2150    0.7454 C   0  0  0  0  0  0  0  0  0  0  0  0
   -2.8368   -1.1418    0.9616 C   0  0  0  0  0  0  0  0  0  0  0  0
   -3.0981    0.3745    0.6938 C   0  0  0  0  0  0  0  0  0  0  0  0
   -1.8916    0.9043   -0.1462 C   0  0  0  0  0  0  0  0  0  0  0  0
   -0.8475   -0.1042    0.1424 C   0  0  0  0  0  0  0  0  0  0  0  0
    0.5266   -0.2464   -0.0287 C   0  0  0  0  0  0  0  0  0  0  0  0
    1.5966    0.6585   -0.6314 C   0  0  0  0  0  0  0  0  0  0  0  0
    1.5466    1.8484   -1.1726 N   0  0  0  0  0  0  0  0  0  0  0  0
    2.8621    2.0636   -1.4988 C   0  0  0  0  0  0  0  0  0  0  0  0
    3.7155    1.0770   -1.1901 N   0  0  0  0  0  0  0  0  0  0  0  0
    2.8748    0.1765   -0.6291 N   0  0  0  0  0  0  0  0  0  0  0  0
   -3.3697   -1.7579    0.2303 H   0  0  0  0  0  0  0  0  0  0  0  0
   -3.1409   -1.4234    1.9733 H   0  0  0  0  0  0  0  0  0  0  0  0
   -4.0580    0.5494    0.1979 H   0  0  0  0  0  0  0  0  0  0  0  0
   -3.1227    0.9061    1.6545 H   0  0  0  0  0  0  0  0  0  0  0  0
   -1.6068    1.9135    0.1637 H   0  0  0  0  0  0  0  0  0  0  0  0
   -2.1398    0.9068   -1.2126 H   0  0  0  0  0  0  0  0  0  0  0  0
    3.2075    2.9721   -1.9781 H   0  0  0  0  0  0  0  0  0  0  0  0
  1  2  1  0
  2  3  2  0
  3  4  1  0
  4  5  1  0
  5  6  1  0
  6  7  1  0
  7  8  1  0
  8  9  1  0
  9 10  1  0
 10 11  1  0
 11 12  1  0
 12 13  2  0
 13 14  1  0
 14 15  2  0
 15 16  1  0
 16  2  1  0
 11  4  2  0
 10  6  2  0
 16 12  1  0
  7 17  1  0
  7 18  1  0
  8 19  1  0
  8 20  1  0
  9 21  1  0
  9 22  1  0
 14 23  1  0
M  END
>  <Unnamed: 0>  (182) 
1178

>  <ID>  (182) 
TRAIN_1178

>  <Canonical_Smiles>  (182) 
Clc1nc2sc3CCCc3c2c4ncnn14

>  <Inhibition>  (182) 
33.8

>  <TDC_conf_true_inhibitor>  (182) 
1

>  <TDC_conf_non_inhibitor>  (182) 
0

>  <split>  (182) 
1

$$$$
182
     RDKit          3D

 40 43  0  0  0  0  0  0  0  0999 V2000
   -5.1555    1.2092    2.2879 C   0  0  0  0  0  0  0  0  0  0  0  0
   -3.7645    0.8215    1.8818 C   0  0  0  0  0  0  0  0  0  0  0  0
   -2.6751    1.1313    2.6896 C   0  0  0  0  0  0  0  0  0  0  0  0
   -1.3820    0.8059    2.2764 C   0  0  0  0  0  0  0  0  0  0  0  0
   -1.1263    0.1577    1.0458 C   0  0  0  0  0  0  0  0  0  0  0  0
    0.2853   -0.0075    0.6783 C   0  0  0  0  0  0  0  0  0  0  0  0
    1.1215   -0.8874    1.3444 C   0  0  0  0  0  0  0  0  0  0  0  0
    2.4287   -1.0619    1.0469 N   0  0  0  0  0  0  0  0  0  0  0  0
    2.9865   -0.3261    0.0407 C   0  0  0  0  0  0  0  0  0  0  0  0
    2.2358    0.6102   -0.6848 C   0  0  0  0  0  0  0  0  0  0  0  0
    2.7340    1.4837   -1.7971 C   0  0  0  0  0  0  0  0  0  0  0  0
    0.8742    0.7519   -0.3381 C   0  0  0  0  0  0  0  0  0  0  0  0
    4.3682   -0.6071   -0.1801 N   0  0  0  0  0  0  0  0  0  0  0  0
    5.2753   -0.1186   -1.0810 C   0  0  0  0  0  0  0  0  0  0  0  0
    6.4524   -0.6802   -0.9106 N   0  0  0  0  0  0  0  0  0  0  0  0
    6.3414   -1.5681    0.1237 N   0  0  0  0  0  0  0  0  0  0  0  0
    5.1007   -1.5181    0.5494 C   0  0  0  0  0  0  0  0  0  0  0  0
   -2.2350   -0.1783    0.2339 C   0  0  0  0  0  0  0  0  0  0  0  0
   -3.5357    0.1870    0.6546 C   0  0  0  0  0  0  0  0  0  0  0  0
   -2.1401   -0.8873   -1.0075 N   0  0  0  0  0  0  0  0  0  0  0  0
   -1.1221   -1.6807   -1.4977 C   0  0  0  0  0  0  0  0  0  0  0  0
   -1.4987   -2.1208   -2.7442 C   0  0  0  0  0  0  0  0  0  0  0  0
   -2.7787   -1.5898   -2.9281 C   0  0  0  0  0  0  0  0  0  0  0  0
   -3.1857   -0.8694   -1.8845 N   0  0  0  0  0  0  0  0  0  0  0  0
   -5.4070    2.1896    1.8717 H   0  0  0  0  0  0  0  0  0  0  0  0
   -5.2475    1.2547    3.3781 H   0  0  0  0  0  0  0  0  0  0  0  0
   -5.8845    0.4739    1.9315 H   0  0  0  0  0  0  0  0  0  0  0  0
   -2.8193    1.6433    3.6387 H   0  0  0  0  0  0  0  0  0  0  0  0
   -0.5524    1.0976    2.9212 H   0  0  0  0  0  0  0  0  0  0  0  0
    0.7540   -1.5079    2.1589 H   0  0  0  0  0  0  0  0  0  0  0  0
    3.0605    0.8756   -2.6458 H   0  0  0  0  0  0  0  0  0  0  0  0
    1.9474    2.1462   -2.1767 H   0  0  0  0  0  0  0  0  0  0  0  0
    3.5385    2.1354   -1.4438 H   0  0  0  0  0  0  0  0  0  0  0  0
    0.2540    1.4733   -0.8724 H   0  0  0  0  0  0  0  0  0  0  0  0
    5.0807    0.6203   -1.8375 H   0  0  0  0  0  0  0  0  0  0  0  0
    4.6849   -2.1002    1.3599 H   0  0  0  0  0  0  0  0  0  0  0  0
   -4.3983   -0.0477    0.0294 H   0  0  0  0  0  0  0  0  0  0  0  0
   -0.2359   -1.9066   -0.9295 H   0  0  0  0  0  0  0  0  0  0  0  0
   -0.9364   -2.7610   -3.4087 H   0  0  0  0  0  0  0  0  0  0  0  0
   -3.4433   -1.7071   -3.7747 H   0  0  0  0  0  0  0  0  0  0  0  0
  1  2  1  0
  2  3  2  0
  3  4  1  0
  4  5  2  0
  5  6  1  0
  6  7  2  0
  7  8  1  0
  8  9  2  0
  9 10  1  0
 10 11  1  0
 10 12  2  0
  9 13  1  0
 13 14  1  0
 14 15  2  0
 15 16  1  0
 16 17  2  0
  5 18  1  0
 18 19  2  0
 18 20  1  0
 20 21  1  0
 21 22  2  0
 22 23  1  0
 23 24  2  0
 19  2  1  0
 12  6  1  0
 17 13  1  0
 24 20  1  0
  1 25  1  0
  1 26  1  0
  1 27  1  0
  3 28  1  0
  4 29  1  0
  7 30  1  0
 11 31  1  0
 11 32  1  0
 11 33  1  0
 12 34  1  0
 14 35  1  0
 17 36  1  0
 19 37  1  0
 21 38  1  0
 22 39  1  0
 23 40  1  0
M  END
>  <Unnamed: 0>  (183) 
1196

>  <ID>  (183) 
TRAIN_1196

>  <Canonical_Smiles>  (183) 
Cc1ccc(c2cnc(c(C)c2)n3cnnc3)c(c1)n4cccn4

>  <Inhibition>  (183) 
42.1

>  <TDC_conf_true_inhibitor>  (183) 
1

>  <TDC_conf_non_inhibitor>  (183) 
0

>  <split>  (183) 
1

$$$$
183
     RDKit          3D

 65 68  0  0  0  0  0  0  0  0999 V2000
    7.2713    5.2836   -0.1559 C   0  0  0  0  0  0  0  0  0  0  0  0
    6.1249    4.3318   -0.4479 C   0  0  0  0  0  0  0  0  0  0  0  0
    6.5211    3.0252   -0.0345 O   0  0  0  0  0  0  0  0  0  0  0  0
    5.5993    2.0238   -0.1614 C   0  0  0  0  0  0  0  0  0  0  0  0
    5.9979    0.7944    0.3700 C   0  0  0  0  0  0  0  0  0  0  0  0
    5.1508   -0.3144    0.3129 C   0  0  0  0  0  0  0  0  0  0  0  0
    3.8983   -0.2040   -0.2975 C   0  0  0  0  0  0  0  0  0  0  0  0
    3.4890    1.0262   -0.8208 C   0  0  0  0  0  0  0  0  0  0  0  0
    4.3411    2.1360   -0.7552 C   0  0  0  0  0  0  0  0  0  0  0  0
    3.0219   -1.4026   -0.3339 C   0  0  0  0  0  0  0  0  0  0  0  0
    3.0061   -2.1438    0.6486 O   0  0  0  0  0  0  0  0  0  0  0  0
    2.2233   -1.6773   -1.6015 C   0  0  0  0  0  0  0  0  0  0  0  0
    0.8558   -1.9728   -1.2583 N   0  0  0  0  0  0  0  0  0  0  0  0
    0.3546   -3.2460   -1.1490 N   0  0  0  0  0  0  0  0  0  0  0  0
   -0.8727   -3.0687   -0.7530 C   0  0  0  0  0  0  0  0  0  0  0  0
   -1.7743   -4.0676   -0.4919 N   0  0  0  0  0  0  0  0  0  0  0  0
   -1.3465   -5.4753   -0.6287 C   0  0  0  0  0  0  0  0  0  0  0  0
   -2.2155   -6.2643   -1.6124 C   0  0  0  0  0  0  0  0  0  0  0  0
   -1.2495   -6.1781    0.7278 C   0  0  0  0  0  0  0  0  0  0  0  0
   -3.0611   -3.7810   -0.0265 C   0  0  0  0  0  0  0  0  0  0  0  0
   -3.8938   -4.6285    0.2830 O   0  0  0  0  0  0  0  0  0  0  0  0
   -3.4365   -2.3502    0.1087 C   0  0  0  0  0  0  0  0  0  0  0  0
   -4.7252   -2.0012    0.5320 C   0  0  0  0  0  0  0  0  0  0  0  0
   -5.0751   -0.6563    0.6594 C   0  0  0  0  0  0  0  0  0  0  0  0
   -4.1390    0.3445    0.3722 C   0  0  0  0  0  0  0  0  0  0  0  0
   -2.8543   -0.0100   -0.0653 C   0  0  0  0  0  0  0  0  0  0  0  0
   -2.4979   -1.3595   -0.1899 C   0  0  0  0  0  0  0  0  0  0  0  0
   -1.2338   -1.7759   -0.6069 N   0  0  0  0  0  0  0  0  0  0  0  0
   -0.1189   -1.0324   -0.9221 C   0  0  0  0  0  0  0  0  0  0  0  0
    0.0366    0.1799   -0.9140 O   0  0  0  0  0  0  0  0  0  0  0  0
   -4.5591    1.7670    0.5131 C   0  0  0  0  0  0  0  0  0  0  0  0
   -5.7448    2.0624    0.4237 O   0  0  0  0  0  0  0  0  0  0  0  0
   -3.5579    2.6820    0.7703 N   0  0  0  0  0  0  0  0  0  0  0  0
   -3.8628    4.0788    1.0516 C   0  0  0  0  0  0  0  0  0  0  0  0
   -2.6701    4.9565    0.6843 C   0  0  0  0  0  0  0  0  0  0  0  0
   -4.2395    4.2599    2.5210 C   0  0  0  0  0  0  0  0  0  0  0  0
    7.5267    5.2656    0.9087 H   0  0  0  0  0  0  0  0  0  0  0  0
    7.0098    6.3068   -0.4401 H   0  0  0  0  0  0  0  0  0  0  0  0
    8.1696    4.9833   -0.7047 H   0  0  0  0  0  0  0  0  0  0  0  0
    5.9165    4.3424   -1.5240 H   0  0  0  0  0  0  0  0  0  0  0  0
    5.2392    4.6559    0.1109 H   0  0  0  0  0  0  0  0  0  0  0  0
    6.9736    0.7025    0.8420 H   0  0  0  0  0  0  0  0  0  0  0  0
    5.4712   -1.2596    0.7468 H   0  0  0  0  0  0  0  0  0  0  0  0
    2.5006    1.1568   -1.2543 H   0  0  0  0  0  0  0  0  0  0  0  0
    3.9870    3.0749   -1.1689 H   0  0  0  0  0  0  0  0  0  0  0  0
    2.6658   -2.5374   -2.1146 H   0  0  0  0  0  0  0  0  0  0  0  0
    2.2324   -0.8260   -2.2857 H   0  0  0  0  0  0  0  0  0  0  0  0
   -0.3347   -5.4906   -1.0505 H   0  0  0  0  0  0  0  0  0  0  0  0
   -1.7751   -7.2486   -1.8058 H   0  0  0  0  0  0  0  0  0  0  0  0
   -2.2931   -5.7364   -2.5689 H   0  0  0  0  0  0  0  0  0  0  0  0
   -3.2295   -6.4306   -1.2385 H   0  0  0  0  0  0  0  0  0  0  0  0
   -0.6009   -5.6140    1.4077 H   0  0  0  0  0  0  0  0  0  0  0  0
   -0.8258   -7.1818    0.6117 H   0  0  0  0  0  0  0  0  0  0  0  0
   -2.2253   -6.2845    1.2119 H   0  0  0  0  0  0  0  0  0  0  0  0
   -5.4603   -2.7711    0.7614 H   0  0  0  0  0  0  0  0  0  0  0  0
   -6.0806   -0.3898    0.9842 H   0  0  0  0  0  0  0  0  0  0  0  0
   -2.1508    0.7712   -0.3352 H   0  0  0  0  0  0  0  0  0  0  0  0
   -2.6546    2.3410    1.0705 H   0  0  0  0  0  0  0  0  0  0  0  0
   -4.7202    4.3743    0.4338 H   0  0  0  0  0  0  0  0  0  0  0  0
   -2.8912    6.0133    0.8659 H   0  0  0  0  0  0  0  0  0  0  0  0
   -2.4175    4.8402   -0.3757 H   0  0  0  0  0  0  0  0  0  0  0  0
   -1.7819    4.6870    1.2673 H   0  0  0  0  0  0  0  0  0  0  0  0
   -3.4239    3.9437    3.1806 H   0  0  0  0  0  0  0  0  0  0  0  0
   -5.1202    3.6615    2.7758 H   0  0  0  0  0  0  0  0  0  0  0  0
   -4.4703    5.3076    2.7394 H   0  0  0  0  0  0  0  0  0  0  0  0
  1  2  1  0
  2  3  1  0
  3  4  1  0
  4  5  2  0
  5  6  1  0
  6  7  2  0
  7  8  1  0
  8  9  2  0
  7 10  1  0
 10 11  2  0
 10 12  1  0
 12 13  1  0
 13 14  1  0
 14 15  2  0
 15 16  1  0
 16 17  1  0
 17 18  1  0
 17 19  1  0
 16 20  1  0
 20 21  2  0
 20 22  1  0
 22 23  2  0
 23 24  1  0
 24 25  2  0
 25 26  1  0
 26 27  2  0
 27 28  1  0
 28 29  1  0
 29 30  2  0
 25 31  1  0
 31 32  2  0
 31 33  1  0
 33 34  1  0
 34 35  1  0
 34 36  1  0
  9  4  1  0
 29 13  1  0
 28 15  1  0
 27 22  1  0
  1 37  1  0
  1 38  1  0
  1 39  1  0
  2 40  1  0
  2 41  1  0
  5 42  1  0
  6 43  1  0
  8 44  1  0
  9 45  1  0
 12 46  1  0
 12 47  1  0
 17 48  1  0
 18 49  1  0
 18 50  1  0
 18 51  1  0
 19 52  1  0
 19 53  1  0
 19 54  1  0
 23 55  1  0
 24 56  1  0
 26 57  1  0
 33 58  1  0
 34 59  1  0
 35 60  1  0
 35 61  1  0
 35 62  1  0
 36 63  1  0
 36 64  1  0
 36 65  1  0
M  END
>  <Unnamed: 0>  (184) 
1197

>  <ID>  (184) 
TRAIN_1197

>  <Canonical_Smiles>  (184) 
CCOc1ccc(cc1)C(=O)CN2N=C3N(C(C)C)C(=O)c4ccc(cc4N3C2=O)C(=O)NC(C)C

>  <Inhibition>  (184) 
52.8

>  <TDC_conf_true_inhibitor>  (184) 
1

>  <TDC_conf_non_inhibitor>  (184) 
0

>  <split>  (184) 
1

$$$$
184
     RDKit          3D

 46 48  0  0  0  0  0  0  0  0999 V2000
    3.2383   -1.5731    2.8824 C   0  0  0  0  0  0  0  0  0  0  0  0
    3.1749   -1.2004    1.3933 C   0  0  0  0  0  0  0  0  0  0  0  0
    4.3500   -1.8082    0.6215 C   0  0  0  0  0  0  0  0  0  0  0  0
    3.1442    0.2581    1.2511 N   0  0  0  0  0  0  0  0  0  0  0  0
    4.2124    1.0478    1.6269 N   0  0  0  0  0  0  0  0  0  0  0  0
    4.0980    2.2532    0.9610 C   0  0  0  0  0  0  0  0  0  0  0  0
    3.1110    2.2768    0.0521 C   0  0  0  0  0  0  0  0  0  0  0  0
    2.4891    0.9144    0.1958 C   0  0  0  0  0  0  0  0  0  0  0  0
    1.5350    0.3745   -0.4941 N   0  0  0  0  0  0  0  0  0  0  0  0
    0.8764    1.0634   -1.4933 C   0  0  0  0  0  0  0  0  0  0  0  0
    0.8941    2.2854   -1.6491 O   0  0  0  0  0  0  0  0  0  0  0  0
    0.1715    0.1603   -2.5203 C   0  0  0  0  0  0  0  0  0  0  0  0
   -0.6931    0.9399   -3.5123 C   0  0  0  0  0  0  0  0  0  0  0  0
   -0.7806   -1.2291   -1.7762 S   0  0  0  0  0  0  0  0  0  0  0  0
   -2.0243   -0.3841   -0.7930 C   0  0  0  0  0  0  0  0  0  0  0  0
   -1.6905    0.8435   -0.3608 N   0  0  0  0  0  0  0  0  0  0  0  0
   -2.5642    1.4703    0.4330 C   0  0  0  0  0  0  0  0  0  0  0  0
   -2.1501    2.7872    1.0154 C   0  0  0  0  0  0  0  0  0  0  0  0
   -3.7519    0.9684    0.8053 N   0  0  0  0  0  0  0  0  0  0  0  0
   -4.0734   -0.2544    0.3691 C   0  0  0  0  0  0  0  0  0  0  0  0
   -5.2918   -0.7967    0.7644 C   0  0  0  0  0  0  0  0  0  0  0  0
   -5.7026   -2.0731    0.3679 C   0  0  0  0  0  0  0  0  0  0  0  0
   -4.8863   -2.8355   -0.4552 C   0  0  0  0  0  0  0  0  0  0  0  0
   -3.6606   -2.3155   -0.8657 C   0  0  0  0  0  0  0  0  0  0  0  0
   -3.2352   -1.0160   -0.4540 C   0  0  0  0  0  0  0  0  0  0  0  0
    3.1615   -2.6629    3.0096 H   0  0  0  0  0  0  0  0  0  0  0  0
    2.4151   -1.0975    3.4355 H   0  0  0  0  0  0  0  0  0  0  0  0
    4.1825   -1.2503    3.3505 H   0  0  0  0  0  0  0  0  0  0  0  0
    2.2431   -1.6193    0.9923 H   0  0  0  0  0  0  0  0  0  0  0  0
    4.3610   -2.8985    0.7269 H   0  0  0  0  0  0  0  0  0  0  0  0
    4.2869   -1.5645   -0.4489 H   0  0  0  0  0  0  0  0  0  0  0  0
    5.3068   -1.4313    0.9930 H   0  0  0  0  0  0  0  0  0  0  0  0
    4.3803    1.1569    2.6292 H   0  0  0  0  0  0  0  0  0  0  0  0
    4.7642    3.0619    1.2188 H   0  0  0  0  0  0  0  0  0  0  0  0
    2.8077    3.0761   -0.5969 H   0  0  0  0  0  0  0  0  0  0  0  0
    0.9809   -0.3127   -3.0948 H   0  0  0  0  0  0  0  0  0  0  0  0
   -0.0802    1.6668   -4.0602 H   0  0  0  0  0  0  0  0  0  0  0  0
   -1.4899    1.5066   -3.0163 H   0  0  0  0  0  0  0  0  0  0  0  0
   -1.1490    0.2775   -4.2556 H   0  0  0  0  0  0  0  0  0  0  0  0
   -1.8488    2.6431    2.0598 H   0  0  0  0  0  0  0  0  0  0  0  0
   -1.3056    3.2142    0.4648 H   0  0  0  0  0  0  0  0  0  0  0  0
   -2.9790    3.5050    0.9815 H   0  0  0  0  0  0  0  0  0  0  0  0
   -5.9400   -0.2061    1.4108 H   0  0  0  0  0  0  0  0  0  0  0  0
   -6.6593   -2.4694    0.7068 H   0  0  0  0  0  0  0  0  0  0  0  0
   -5.1957   -3.8278   -0.7726 H   0  0  0  0  0  0  0  0  0  0  0  0
   -3.0333   -2.9252   -1.5125 H   0  0  0  0  0  0  0  0  0  0  0  0
  1  2  1  0
  2  3  1  0
  2  4  1  0
  4  5  1  0
  5  6  1  0
  6  7  2  0
  7  8  1  0
  8  9  2  0
  9 10  1  0
 10 11  2  0
 10 12  1  0
 12 13  1  0
 12 14  1  0
 14 15  1  0
 15 16  2  0
 16 17  1  0
 17 18  1  0
 17 19  2  0
 19 20  1  0
 20 21  2  0
 21 22  1  0
 22 23  2  0
 23 24  1  0
 24 25  2  0
  8  4  1  0
 25 15  1  0
 25 20  1  0
  1 26  1  0
  1 27  1  0
  1 28  1  0
  2 29  1  0
  3 30  1  0
  3 31  1  0
  3 32  1  0
  5 33  1  0
  6 34  1  0
  7 35  1  0
 12 36  1  0
 13 37  1  0
 13 38  1  0
 13 39  1  0
 18 40  1  0
 18 41  1  0
 18 42  1  0
 21 43  1  0
 22 44  1  0
 23 45  1  0
 24 46  1  0
M  END
>  <Unnamed: 0>  (185) 
1205

>  <ID>  (185) 
TRAIN_1205

>  <Canonical_Smiles>  (185) 
CC(C)N1NC=C/C/1=N\C(=O)C(C)Sc2nc(C)nc3ccccc23

>  <Inhibition>  (185) 
23.4

>  <TDC_conf_true_inhibitor>  (185) 
1

>  <TDC_conf_non_inhibitor>  (185) 
0

>  <split>  (185) 
1

$$$$
185
     RDKit          3D

 59 61  0  0  0  0  0  0  0  0999 V2000
    4.7813   -2.6383   -0.3747 C   0  0  0  0  0  0  0  0  0  0  0  0
    5.2423   -1.5096    0.5535 C   0  0  0  0  0  0  0  0  0  0  0  0
    4.1135   -0.9782    1.4713 C   0  0  0  0  0  0  0  0  0  0  0  0
    2.8133   -0.6487    0.8887 N   0  0  0  0  0  0  0  0  0  0  0  0
    2.7578    0.6831    0.2871 C   0  0  0  0  0  0  0  0  0  0  0  0
    1.3766    0.9576   -0.2806 C   0  0  0  0  0  0  0  0  0  0  0  0
    1.2515    1.0125   -1.6826 C   0  0  0  0  0  0  0  0  0  0  0  0
    0.0218    1.2557   -2.2949 C   0  0  0  0  0  0  0  0  0  0  0  0
   -0.0954    1.2930   -3.7884 C   0  0  0  0  0  0  0  0  0  0  0  0
   -1.1106    1.3970   -1.4925 C   0  0  0  0  0  0  0  0  0  0  0  0
   -1.0379    1.3161   -0.0876 C   0  0  0  0  0  0  0  0  0  0  0  0
   -2.3274    1.4773    0.7098 C   0  0  0  0  0  0  0  0  0  0  0  0
   -3.4761    0.7364    0.1545 N   0  0  0  0  0  0  0  0  0  0  0  0
   -3.3227   -0.7119    0.2906 C   0  0  0  0  0  0  0  0  0  0  0  0
   -4.3921   -1.4367   -0.5381 C   0  0  0  0  0  0  0  0  0  0  0  0
   -5.7533   -0.7202   -0.5370 C   0  0  0  0  0  0  0  0  0  0  0  0
   -6.9011   -1.7220   -0.6196 C   0  0  0  0  0  0  0  0  0  0  0  0
   -5.8777    0.1797    0.6929 C   0  0  0  0  0  0  0  0  0  0  0  0
   -4.7320    1.2010    0.7612 C   0  0  0  0  0  0  0  0  0  0  0  0
    0.2266    1.1359    0.5311 C   0  0  0  0  0  0  0  0  0  0  0  0
    0.3281    1.0819    2.0364 C   0  0  0  0  0  0  0  0  0  0  0  0
    5.9617   -0.4487   -0.1296 N   0  0  0  0  0  0  0  0  0  0  0  0
    6.9283    0.3525    0.3988 C   0  0  0  0  0  0  0  0  0  0  0  0
    7.3769    1.1730   -0.5235 N   0  0  0  0  0  0  0  0  0  0  0  0
    6.6503    0.8198   -1.6243 C   0  0  0  0  0  0  0  0  0  0  0  0
    5.7758   -0.1716   -1.4354 N   0  0  0  0  0  0  0  0  0  0  0  0
    4.3092   -3.4439    0.1986 H   0  0  0  0  0  0  0  0  0  0  0  0
    4.0632   -2.2896   -1.1248 H   0  0  0  0  0  0  0  0  0  0  0  0
    5.6349   -3.0656   -0.9123 H   0  0  0  0  0  0  0  0  0  0  0  0
    5.9948   -1.9558    1.2201 H   0  0  0  0  0  0  0  0  0  0  0  0
    3.9080   -1.7748    2.1975 H   0  0  0  0  0  0  0  0  0  0  0  0
    4.4781   -0.1363    2.0747 H   0  0  0  0  0  0  0  0  0  0  0  0
    2.5205   -1.3331    0.1936 H   0  0  0  0  0  0  0  0  0  0  0  0
    3.0079    1.4631    1.0149 H   0  0  0  0  0  0  0  0  0  0  0  0
    3.4957    0.7690   -0.5144 H   0  0  0  0  0  0  0  0  0  0  0  0
    2.1326    0.8653   -2.3067 H   0  0  0  0  0  0  0  0  0  0  0  0
   -0.9030    1.9635   -4.1003 H   0  0  0  0  0  0  0  0  0  0  0  0
   -0.2991    0.2894   -4.1730 H   0  0  0  0  0  0  0  0  0  0  0  0
    0.8283    1.6656   -4.2431 H   0  0  0  0  0  0  0  0  0  0  0  0
   -2.0803    1.5573   -1.9623 H   0  0  0  0  0  0  0  0  0  0  0  0
   -2.1943    1.1797    1.7554 H   0  0  0  0  0  0  0  0  0  0  0  0
   -2.5480    2.5526    0.7112 H   0  0  0  0  0  0  0  0  0  0  0  0
   -3.3925   -1.0099    1.3449 H   0  0  0  0  0  0  0  0  0  0  0  0
   -2.3464   -1.0554   -0.0649 H   0  0  0  0  0  0  0  0  0  0  0  0
   -4.0520   -1.5290   -1.5779 H   0  0  0  0  0  0  0  0  0  0  0  0
   -4.4868   -2.4613   -0.1566 H   0  0  0  0  0  0  0  0  0  0  0  0
   -5.8070   -0.0833   -1.4305 H   0  0  0  0  0  0  0  0  0  0  0  0
   -6.8055   -2.3408   -1.5160 H   0  0  0  0  0  0  0  0  0  0  0  0
   -6.9150   -2.3857    0.2515 H   0  0  0  0  0  0  0  0  0  0  0  0
   -7.8671   -1.2075   -0.6643 H   0  0  0  0  0  0  0  0  0  0  0  0
   -6.8384    0.7099    0.6880 H   0  0  0  0  0  0  0  0  0  0  0  0
   -5.8641   -0.4398    1.6000 H   0  0  0  0  0  0  0  0  0  0  0  0
   -5.0395    2.1144    0.2401 H   0  0  0  0  0  0  0  0  0  0  0  0
   -4.5929    1.4688    1.8162 H   0  0  0  0  0  0  0  0  0  0  0  0
   -0.0284    0.1150    2.3994 H   0  0  0  0  0  0  0  0  0  0  0  0
   -0.2604    1.8829    2.4954 H   0  0  0  0  0  0  0  0  0  0  0  0
    1.3462    1.2313    2.4044 H   0  0  0  0  0  0  0  0  0  0  0  0
    7.2581    0.2990    1.4270 H   0  0  0  0  0  0  0  0  0  0  0  0
    6.7636    1.2985   -2.5893 H   0  0  0  0  0  0  0  0  0  0  0  0
  1  2  1  0
  2  3  1  0
  3  4  1  0
  4  5  1  0
  5  6  1  0
  6  7  2  0
  7  8  1  0
  8  9  1  0
  8 10  2  0
 10 11  1  0
 11 12  1  0
 12 13  1  0
 13 14  1  0
 14 15  1  0
 15 16  1  0
 16 17  1  0
 16 18  1  0
 18 19  1  0
 11 20  2  0
 20 21  1  0
  2 22  1  0
 22 23  1  0
 23 24  2  0
 24 25  1  0
 25 26  2  0
 20  6  1  0
 19 13  1  0
 26 22  1  0
  1 27  1  0
  1 28  1  0
  1 29  1  0
  2 30  1  0
  3 31  1  0
  3 32  1  0
  4 33  1  0
  5 34  1  0
  5 35  1  0
  7 36  1  0
  9 37  1  0
  9 38  1  0
  9 39  1  0
 10 40  1  0
 12 41  1  0
 12 42  1  0
 14 43  1  0
 14 44  1  0
 15 45  1  0
 15 46  1  0
 16 47  1  0
 17 48  1  0
 17 49  1  0
 17 50  1  0
 18 51  1  0
 18 52  1  0
 19 53  1  0
 19 54  1  0
 21 55  1  0
 21 56  1  0
 21 57  1  0
 23 58  1  0
 25 59  1  0
M  END
>  <Unnamed: 0>  (186) 
1218

>  <ID>  (186) 
TRAIN_1218

>  <Canonical_Smiles>  (186) 
CC(CNCc1cc(C)cc(CN2CCC(C)CC2)c1C)n3cncn3

>  <Inhibition>  (186) 
55.2

>  <TDC_conf_true_inhibitor>  (186) 
1

>  <TDC_conf_non_inhibitor>  (186) 
0

>  <split>  (186) 
1

$$$$
186
     RDKit          3D

 55 58  0  0  0  0  0  0  0  0999 V2000
    8.9926   -1.9110   -1.6142 C   0  0  0  0  0  0  0  0  0  0  0  0
    7.6468   -1.4043   -1.1861 C   0  0  0  0  0  0  0  0  0  0  0  0
    7.2422   -1.5464    0.1433 C   0  0  0  0  0  0  0  0  0  0  0  0
    5.9988   -1.0633    0.5648 C   0  0  0  0  0  0  0  0  0  0  0  0
    5.1349   -0.4288   -0.3327 C   0  0  0  0  0  0  0  0  0  0  0  0
    5.5377   -0.3081   -1.6685 C   0  0  0  0  0  0  0  0  0  0  0  0
    6.7809   -0.7916   -2.0892 C   0  0  0  0  0  0  0  0  0  0  0  0
    3.8564    0.1202    0.1105 C   0  0  0  0  0  0  0  0  0  0  0  0
    3.4054    0.0389    1.3752 N   0  0  0  0  0  0  0  0  0  0  0  0
    2.2272    0.7744    1.3565 O   0  0  0  0  0  0  0  0  0  0  0  0
    2.0496    1.1923    0.0677 C   0  0  0  0  0  0  0  0  0  0  0  0
    0.8779    2.0575   -0.2070 C   0  0  0  0  0  0  0  0  0  0  0  0
   -0.4297    1.5083    0.3613 C   0  0  0  0  0  0  0  0  0  0  0  0
   -1.3777    2.6377    0.7321 C   0  0  0  0  0  0  0  0  0  0  0  0
   -1.2397    3.7660    0.2563 O   0  0  0  0  0  0  0  0  0  0  0  0
   -2.3711    2.3111    1.6807 N   0  0  0  0  0  0  0  0  0  0  0  0
   -2.6924    3.3169    2.5948 C   0  0  0  0  0  0  0  0  0  0  0  0
   -3.6341    3.1516    3.5326 C   0  0  0  0  0  0  0  0  0  0  0  0
   -4.3371    1.9047    3.6273 C   0  0  0  0  0  0  0  0  0  0  0  0
   -4.1221    0.9404    2.7256 C   0  0  0  0  0  0  0  0  0  0  0  0
   -3.1612    1.1475    1.5954 C   0  0  0  0  0  0  0  0  0  0  0  0
   -3.0289    0.3790    0.5765 N   0  0  0  0  0  0  0  0  0  0  0  0
   -3.8134   -0.8357    0.3578 C   0  0  0  0  0  0  0  0  0  0  0  0
   -3.0230   -1.6884   -0.6539 C   0  0  0  0  0  0  0  0  0  0  0  0
   -3.9351   -2.5066   -1.5611 C   0  0  0  0  0  0  0  0  0  0  0  0
   -4.8426   -1.6095   -2.3945 C   0  0  0  0  0  0  0  0  0  0  0  0
   -5.2449   -0.3208   -1.6787 C   0  0  0  0  0  0  0  0  0  0  0  0
   -5.2147   -0.4728   -0.1626 C   0  0  0  0  0  0  0  0  0  0  0  0
    3.0155    0.8154   -0.7360 N   0  0  0  0  0  0  0  0  0  0  0  0
    9.2254   -1.6169   -2.6449 H   0  0  0  0  0  0  0  0  0  0  0  0
    9.7717   -1.4959   -0.9694 H   0  0  0  0  0  0  0  0  0  0  0  0
    9.0246   -3.0023   -1.5537 H   0  0  0  0  0  0  0  0  0  0  0  0
    7.8965   -2.0247    0.8654 H   0  0  0  0  0  0  0  0  0  0  0  0
    5.7168   -1.1817    1.6026 H   0  0  0  0  0  0  0  0  0  0  0  0
    4.8877    0.1754   -2.3911 H   0  0  0  0  0  0  0  0  0  0  0  0
    7.0702   -0.6744   -3.1281 H   0  0  0  0  0  0  0  0  0  0  0  0
    0.7716    2.1460   -1.2873 H   0  0  0  0  0  0  0  0  0  0  0  0
    1.1089    3.0618    0.1615 H   0  0  0  0  0  0  0  0  0  0  0  0
   -0.8927    0.8735   -0.4033 H   0  0  0  0  0  0  0  0  0  0  0  0
   -0.2604    0.9008    1.2565 H   0  0  0  0  0  0  0  0  0  0  0  0
   -2.1243    4.2481    2.5251 H   0  0  0  0  0  0  0  0  0  0  0  0
   -3.8708    3.9405    4.2352 H   0  0  0  0  0  0  0  0  0  0  0  0
   -5.0451    1.7733    4.4358 H   0  0  0  0  0  0  0  0  0  0  0  0
   -4.6588    0.0115    2.7806 H   0  0  0  0  0  0  0  0  0  0  0  0
   -3.9018   -1.4103    1.2863 H   0  0  0  0  0  0  0  0  0  0  0  0
   -2.3989   -1.0398   -1.2874 H   0  0  0  0  0  0  0  0  0  0  0  0
   -2.3357   -2.3441   -0.1145 H   0  0  0  0  0  0  0  0  0  0  0  0
   -3.3416   -3.1413   -2.2276 H   0  0  0  0  0  0  0  0  0  0  0  0
   -4.5469   -3.1691   -0.9526 H   0  0  0  0  0  0  0  0  0  0  0  0
   -5.7372   -2.1791   -2.6721 H   0  0  0  0  0  0  0  0  0  0  0  0
   -4.3528   -1.3453   -3.3345 H   0  0  0  0  0  0  0  0  0  0  0  0
   -4.5625    0.4857   -1.9661 H   0  0  0  0  0  0  0  0  0  0  0  0
   -6.2410   -0.0167   -2.0125 H   0  0  0  0  0  0  0  0  0  0  0  0
   -5.5816    0.4487    0.3022 H   0  0  0  0  0  0  0  0  0  0  0  0
   -5.9195   -1.2600    0.1199 H   0  0  0  0  0  0  0  0  0  0  0  0
  1  2  1  0
  2  3  2  0
  3  4  1  0
  4  5  2  0
  5  6  1  0
  6  7  2  0
  5  8  1  0
  8  9  2  0
  9 10  1  0
 10 11  1  0
 11 12  1  0
 12 13  1  0
 13 14  1  0
 14 15  2  0
 14 16  1  0
 16 17  1  0
 17 18  2  0
 18 19  1  0
 19 20  2  0
 20 21  1  0
 21 22  2  0
 22 23  1  0
 23 24  1  0
 24 25  1  0
 25 26  1  0
 26 27  1  0
 27 28  1  0
 11 29  2  0
  7  2  1  0
 29  8  1  0
 21 16  1  0
 28 23  1  0
  1 30  1  0
  1 31  1  0
  1 32  1  0
  3 33  1  0
  4 34  1  0
  6 35  1  0
  7 36  1  0
 12 37  1  0
 12 38  1  0
 13 39  1  0
 13 40  1  0
 17 41  1  0
 18 42  1  0
 19 43  1  0
 20 44  1  0
 23 45  1  0
 24 46  1  0
 24 47  1  0
 25 48  1  0
 25 49  1  0
 26 50  1  0
 26 51  1  0
 27 52  1  0
 27 53  1  0
 28 54  1  0
 28 55  1  0
M  END
>  <Unnamed: 0>  (187) 
1219

>  <ID>  (187) 
TRAIN_1219

>  <Canonical_Smiles>  (187) 
Cc1ccc(cc1)c2noc(CCC(=O)N3C=CC=C/C/3=N\C4CCCCC4)n2

>  <Inhibition>  (187) 
76.3

>  <TDC_conf_true_inhibitor>  (187) 
1

>  <TDC_conf_non_inhibitor>  (187) 
0

>  <split>  (187) 
1

$$$$
187
     RDKit          3D

 38 41  0  0  0  0  0  0  0  0999 V2000
   -3.0994    2.4586   -0.7331 O   0  0  0  0  0  0  0  0  0  0  0  0
   -4.0860    1.8736   -0.3162 C   0  0  0  0  0  0  0  0  0  0  0  0
   -5.3076    2.4981   -0.2414 O   0  0  0  0  0  0  0  0  0  0  0  0
   -6.2884    1.5153    0.0791 C   0  0  0  0  0  0  0  0  0  0  0  0
   -5.5102    0.3780    0.6851 C   0  0  0  0  0  0  0  0  0  0  0  0
   -4.1936    0.5730    0.1601 N   0  0  0  0  0  0  0  0  0  0  0  0
   -3.1543   -0.3859    0.2871 C   0  0  0  0  0  0  0  0  0  0  0  0
   -3.3744   -1.5884    0.9779 C   0  0  0  0  0  0  0  0  0  0  0  0
   -2.3616   -2.5425    1.1166 C   0  0  0  0  0  0  0  0  0  0  0  0
   -1.1079   -2.3157    0.5594 C   0  0  0  0  0  0  0  0  0  0  0  0
   -0.8597   -1.1365   -0.1498 C   0  0  0  0  0  0  0  0  0  0  0  0
    0.5064   -0.8769   -0.7418 C   0  0  0  0  0  0  0  0  0  0  0  0
    1.3952   -0.4206    0.3040 N   0  0  0  0  0  0  0  0  0  0  0  0
    2.6789   -0.2100   -0.0191 C   0  0  0  0  0  0  0  0  0  0  0  0
    3.3670    0.6122    0.8273 O   0  0  0  0  0  0  0  0  0  0  0  0
    4.6179    0.6644    0.2872 C   0  0  0  0  0  0  0  0  0  0  0  0
    5.7166    1.3682    0.7646 C   0  0  0  0  0  0  0  0  0  0  0  0
    6.8891    1.2458    0.0086 C   0  0  0  0  0  0  0  0  0  0  0  0
    6.9314    0.4599   -1.1510 C   0  0  0  0  0  0  0  0  0  0  0  0
    5.7970   -0.2353   -1.5986 C   0  0  0  0  0  0  0  0  0  0  0  0
    4.6170   -0.1222   -0.8523 C   0  0  0  0  0  0  0  0  0  0  0  0
    3.3738   -0.6706   -1.0364 N   0  0  0  0  0  0  0  0  0  0  0  0
   -1.8848   -0.1796   -0.2713 C   0  0  0  0  0  0  0  0  0  0  0  0
   -6.7965    1.2214   -0.8458 H   0  0  0  0  0  0  0  0  0  0  0  0
   -7.0272    1.9278    0.7722 H   0  0  0  0  0  0  0  0  0  0  0  0
   -5.9391   -0.5885    0.4048 H   0  0  0  0  0  0  0  0  0  0  0  0
   -5.4691    0.4691    1.7764 H   0  0  0  0  0  0  0  0  0  0  0  0
   -4.3305   -1.8113    1.4410 H   0  0  0  0  0  0  0  0  0  0  0  0
   -2.5510   -3.4608    1.6669 H   0  0  0  0  0  0  0  0  0  0  0  0
   -0.3193   -3.0556    0.6828 H   0  0  0  0  0  0  0  0  0  0  0  0
    0.8749   -1.8026   -1.2027 H   0  0  0  0  0  0  0  0  0  0  0  0
    0.4324   -0.1276   -1.5403 H   0  0  0  0  0  0  0  0  0  0  0  0
    0.9896    0.2528    0.9435 H   0  0  0  0  0  0  0  0  0  0  0  0
    5.6632    1.9700    1.6627 H   0  0  0  0  0  0  0  0  0  0  0  0
    7.7861    1.7728    0.3292 H   0  0  0  0  0  0  0  0  0  0  0  0
    7.8586    0.3860   -1.7159 H   0  0  0  0  0  0  0  0  0  0  0  0
    5.8254   -0.8441   -2.4952 H   0  0  0  0  0  0  0  0  0  0  0  0
   -1.6602    0.7278   -0.8254 H   0  0  0  0  0  0  0  0  0  0  0  0
  1  2  2  0
  2  3  1  0
  3  4  1  0
  4  5  1  0
  5  6  1  0
  6  7  1  0
  7  8  2  0
  8  9  1  0
  9 10  2  0
 10 11  1  0
 11 12  1  0
 12 13  1  0
 13 14  1  0
 14 15  1  0
 15 16  1  0
 16 17  2  0
 17 18  1  0
 18 19  2  0
 19 20  1  0
 20 21  2  0
 21 22  1  0
 11 23  2  0
  6  2  1  0
 23  7  1  0
 22 14  2  0
 21 16  1  0
  4 24  1  0
  4 25  1  0
  5 26  1  0
  5 27  1  0
  8 28  1  0
  9 29  1  0
 10 30  1  0
 12 31  1  0
 12 32  1  0
 13 33  1  0
 17 34  1  0
 18 35  1  0
 19 36  1  0
 20 37  1  0
 23 38  1  0
M  END
>  <Unnamed: 0>  (188) 
1222

>  <ID>  (188) 
TRAIN_1222

>  <Canonical_Smiles>  (188) 
O=C1OCCN1c2cccc(CNc3oc4ccccc4n3)c2

>  <Inhibition>  (188) 
49.6

>  <TDC_conf_true_inhibitor>  (188) 
1

>  <TDC_conf_non_inhibitor>  (188) 
0

>  <split>  (188) 
1

$$$$
188
     RDKit          3D

 33 35  0  0  0  0  0  0  0  0999 V2000
   -3.5545    4.5237   -1.7963 F   0  0  0  0  0  0  0  0  0  0  0  0
   -2.8249    3.4186   -1.4703 C   0  0  0  0  0  0  0  0  0  0  0  0
   -2.0041    3.7912   -0.4466 F   0  0  0  0  0  0  0  0  0  0  0  0
   -3.8588    1.9988   -1.0592 S   0  0  0  0  0  6  0  0  0  0  0  0
   -4.6942    2.2827    0.0953 O   0  0  0  0  0  0  0  0  0  0  0  0
   -4.4544    1.4759   -2.2798 O   0  0  0  0  0  0  0  0  0  0  0  0
   -2.6585    0.7922   -0.5255 C   0  0  0  0  0  0  0  0  0  0  0  0
   -2.0901    0.9132    0.7442 C   0  0  0  0  0  0  0  0  0  0  0  0
   -1.1531   -0.0298    1.1685 C   0  0  0  0  0  0  0  0  0  0  0  0
   -0.7934   -1.1050    0.3396 C   0  0  0  0  0  0  0  0  0  0  0  0
    0.2333   -2.1168    0.8049 C   0  0  0  0  0  0  0  0  0  0  0  0
    1.5839   -1.7102    0.4190 N   0  0  0  0  0  0  0  0  0  0  0  0
    2.1570   -2.0635   -0.8056 C   0  0  0  0  0  0  0  0  0  0  0  0
    3.3867   -1.6598   -1.1785 C   0  0  0  0  0  0  0  0  0  0  0  0
    4.1747   -0.8159   -0.2895 C   0  0  0  0  0  0  0  0  0  0  0  0
    3.6658   -0.4489    0.8953 C   0  0  0  0  0  0  0  0  0  0  0  0
    4.2182    0.3238    1.8673 O   0  0  0  0  0  0  0  0  0  0  0  0
    3.1892    0.3105    2.8087 C   0  0  0  0  0  0  0  0  0  0  0  0
    3.2877    0.9128    3.8692 O   0  0  0  0  0  0  0  0  0  0  0  0
    2.0740   -0.4291    2.4367 N   0  0  0  0  0  0  0  0  0  0  0  0
    2.3312   -0.9072    1.2656 C   0  0  0  0  0  0  0  0  0  0  0  0
   -1.3851   -1.2163   -0.9289 C   0  0  0  0  0  0  0  0  0  0  0  0
   -2.3209   -0.2747   -1.3616 C   0  0  0  0  0  0  0  0  0  0  0  0
   -2.2065    3.1498   -2.3309 H   0  0  0  0  0  0  0  0  0  0  0  0
   -2.3665    1.7298    1.4093 H   0  0  0  0  0  0  0  0  0  0  0  0
   -0.7033    0.0762    2.1558 H   0  0  0  0  0  0  0  0  0  0  0  0
    0.1593   -2.2499    1.8921 H   0  0  0  0  0  0  0  0  0  0  0  0
   -0.0051   -3.1015    0.3813 H   0  0  0  0  0  0  0  0  0  0  0  0
    1.5422   -2.6909   -1.4438 H   0  0  0  0  0  0  0  0  0  0  0  0
    3.8126   -1.9472   -2.1342 H   0  0  0  0  0  0  0  0  0  0  0  0
    5.1623   -0.4987   -0.6039 H   0  0  0  0  0  0  0  0  0  0  0  0
   -1.1244   -2.0435   -1.5862 H   0  0  0  0  0  0  0  0  0  0  0  0
   -2.7804   -0.3904   -2.3412 H   0  0  0  0  0  0  0  0  0  0  0  0
  1  2  1  0
  2  3  1  0
  2  4  1  0
  4  5  2  0
  4  6  2  0
  4  7  1  0
  7  8  2  0
  8  9  1  0
  9 10  2  0
 10 11  1  0
 11 12  1  0
 12 13  1  0
 13 14  2  0
 14 15  1  0
 15 16  2  0
 16 17  1  0
 17 18  1  0
 18 19  2  0
 18 20  1  0
 20 21  2  0
 10 22  1  0
 22 23  2  0
 23  7  1  0
 21 12  1  0
 21 16  1  0
  2 24  1  0
  8 25  1  0
  9 26  1  0
 11 27  1  0
 11 28  1  0
 13 29  1  0
 14 30  1  0
 15 31  1  0
 22 32  1  0
 23 33  1  0
M  END
>  <Unnamed: 0>  (189) 
1226

>  <ID>  (189) 
TRAIN_1226

>  <Canonical_Smiles>  (189) 
FC(F)S(=O)(=O)c1ccc(CN2C=CC=C3OC(=O)N=C23)cc1

>  <Inhibition>  (189) 
20.1

>  <TDC_conf_true_inhibitor>  (189) 
0

>  <TDC_conf_non_inhibitor>  (189) 
1

>  <split>  (189) 
1

$$$$
189
     RDKit          3D

 37 40  0  0  0  0  0  0  0  0999 V2000
   -3.3598    1.9917    1.0331 C   0  0  0  0  0  0  0  0  0  0  0  0
   -3.4474    1.3963   -0.3271 C   0  0  0  0  0  0  0  0  0  0  0  0
   -4.0684    1.9628   -1.3454 N   0  0  0  0  0  0  0  0  0  0  0  0
   -4.0940    1.0228   -2.3371 C   0  0  0  0  0  0  0  0  0  0  0  0
   -3.4781   -0.1326   -1.9264 C   0  0  0  0  0  0  0  0  0  0  0  0
   -2.9818    0.1330   -0.6706 N   0  0  0  0  0  0  0  0  0  0  0  0
   -2.2486   -0.7771    0.1291 C   0  0  0  0  0  0  0  0  0  0  0  0
   -2.7886   -2.0647    0.2894 C   0  0  0  0  0  0  0  0  0  0  0  0
   -2.1736   -2.9819    1.1387 C   0  0  0  0  0  0  0  0  0  0  0  0
   -1.0168   -2.6250    1.8225 C   0  0  0  0  0  0  0  0  0  0  0  0
   -0.4529   -1.3618    1.6329 C   0  0  0  0  0  0  0  0  0  0  0  0
   -1.0382   -0.4213    0.7600 C   0  0  0  0  0  0  0  0  0  0  0  0
   -0.2759    0.8548    0.4652 C   0  0  0  0  0  0  0  0  0  0  0  0
    0.9944    0.5847   -0.1937 N   0  0  0  0  0  0  0  0  0  0  0  0
    2.2460    0.6567    0.3397 C   0  0  0  0  0  0  0  0  0  0  0  0
    3.0683    0.3413   -0.7172 C   0  0  0  0  0  0  0  0  0  0  0  0
    2.3113    0.1116   -1.8339 N   0  0  0  0  0  0  0  0  0  0  0  0
    1.0353    0.2750   -1.5042 N   0  0  0  0  0  0  0  0  0  0  0  0
    4.6264    0.2617   -0.6524 C   0  0  0  0  0  0  0  0  0  0  0  0
    5.2925    0.4961    0.4623 N   0  0  0  0  0  0  0  0  0  0  0  0
    6.6466    0.3562    0.2284 C   0  0  0  0  0  0  0  0  0  0  0  0
    6.9975    0.0161   -1.0598 C   0  0  0  0  0  0  0  0  0  0  0  0
    5.5864   -0.1361   -2.0202 S   0  0  0  0  0  0  0  0  0  0  0  0
   -2.4732    2.6251    1.1227 H   0  0  0  0  0  0  0  0  0  0  0  0
   -4.2363    2.6215    1.2191 H   0  0  0  0  0  0  0  0  0  0  0  0
   -3.3354    1.2300    1.8175 H   0  0  0  0  0  0  0  0  0  0  0  0
   -4.5623    1.2231   -3.2922 H   0  0  0  0  0  0  0  0  0  0  0  0
   -3.2983   -1.0712   -2.4310 H   0  0  0  0  0  0  0  0  0  0  0  0
   -3.7135   -2.3532   -0.2070 H   0  0  0  0  0  0  0  0  0  0  0  0
   -2.6034   -3.9713    1.2746 H   0  0  0  0  0  0  0  0  0  0  0  0
   -0.5373   -3.3398    2.4874 H   0  0  0  0  0  0  0  0  0  0  0  0
    0.4777   -1.1329    2.1507 H   0  0  0  0  0  0  0  0  0  0  0  0
   -0.8061    1.5427   -0.1965 H   0  0  0  0  0  0  0  0  0  0  0  0
   -0.0673    1.3882    1.3998 H   0  0  0  0  0  0  0  0  0  0  0  0
    2.4474    0.9072    1.3703 H   0  0  0  0  0  0  0  0  0  0  0  0
    7.3439    0.5156    1.0421 H   0  0  0  0  0  0  0  0  0  0  0  0
    7.9835   -0.1453   -1.4708 H   0  0  0  0  0  0  0  0  0  0  0  0
  1  2  1  0
  2  3  2  0
  3  4  1  0
  4  5  2  0
  5  6  1  0
  6  7  1  0
  7  8  2  0
  8  9  1  0
  9 10  2  0
 10 11  1  0
 11 12  2  0
 12 13  1  0
 13 14  1  0
 14 15  1  0
 15 16  2  0
 16 17  1  0
 17 18  2  0
 16 19  1  0
 19 20  2  0
 20 21  1  0
 21 22  2  0
 22 23  1  0
  6  2  1  0
 12  7  1  0
 18 14  1  0
 23 19  1  0
  1 24  1  0
  1 25  1  0
  1 26  1  0
  4 27  1  0
  5 28  1  0
  8 29  1  0
  9 30  1  0
 10 31  1  0
 11 32  1  0
 13 33  1  0
 13 34  1  0
 15 35  1  0
 21 36  1  0
 22 37  1  0
M  END
>  <Unnamed: 0>  (190) 
1228

>  <ID>  (190) 
TRAIN_1228

>  <Canonical_Smiles>  (190) 
Cc1nccn1c2ccccc2Cn3cc(nn3)c4nccs4

>  <Inhibition>  (190) 
46.0

>  <TDC_conf_true_inhibitor>  (190) 
1

>  <TDC_conf_non_inhibitor>  (190) 
0

>  <split>  (190) 
1

$$$$
190
     RDKit          3D

 37 40  0  0  0  0  0  0  0  0999 V2000
    3.2812   -2.9316   -0.0481 O   0  0  0  0  0  0  0  0  0  0  0  0
    2.3108   -2.2054   -0.2383 C   0  0  0  0  0  0  0  0  0  0  0  0
    0.9049   -2.7854   -0.2917 C   0  0  0  0  0  0  0  0  0  0  0  0
   -0.0193   -2.1273    0.6749 C   0  0  0  0  0  0  0  0  0  0  0  0
   -0.0223   -2.2824    2.0475 C   0  0  0  0  0  0  0  0  0  0  0  0
   -0.9883   -1.5243    2.6216 O   0  0  0  0  0  0  0  0  0  0  0  0
   -1.6318   -0.8661    1.6196 C   0  0  0  0  0  0  0  0  0  0  0  0
   -2.6952    0.0191    1.7989 C   0  0  0  0  0  0  0  0  0  0  0  0
   -3.1903    0.5819    0.6300 C   0  0  0  0  0  0  0  0  0  0  0  0
   -4.3429    1.5314    0.5007 C   0  0  0  0  0  0  0  0  0  0  0  0
   -4.1181    2.0844   -0.9131 C   0  0  0  0  0  0  0  0  0  0  0  0
   -3.4203    0.9752   -1.7118 C   0  0  0  0  0  0  0  0  0  0  0  0
   -2.6642    0.2657   -0.6289 C   0  0  0  0  0  0  0  0  0  0  0  0
   -1.6111   -0.6320   -0.7859 C   0  0  0  0  0  0  0  0  0  0  0  0
   -1.0761   -1.2069    0.3858 C   0  0  0  0  0  0  0  0  0  0  0  0
    2.3526   -0.8377   -0.4920 N   0  0  0  0  0  0  0  0  0  0  0  0
    3.3958    0.0435   -0.5104 C   0  0  0  0  0  0  0  0  0  0  0  0
    3.1456    1.2857   -0.7494 N   0  0  0  0  0  0  0  0  0  0  0  0
    4.4079    2.0517   -0.6518 C   0  0  0  0  0  0  0  0  0  0  0  0
    5.5931    1.1388   -0.9248 C   0  0  0  0  0  0  0  0  0  0  0  0
    5.0350   -0.4349   -0.2554 S   0  0  0  0  0  0  0  0  0  0  0  0
    0.5369   -2.6961   -1.3200 H   0  0  0  0  0  0  0  0  0  0  0  0
    0.9646   -3.8570   -0.0660 H   0  0  0  0  0  0  0  0  0  0  0  0
    0.5774   -2.8656    2.7343 H   0  0  0  0  0  0  0  0  0  0  0  0
   -3.0935    0.2402    2.7799 H   0  0  0  0  0  0  0  0  0  0  0  0
   -5.2893    0.9848    0.5666 H   0  0  0  0  0  0  0  0  0  0  0  0
   -4.3156    2.3277    1.2497 H   0  0  0  0  0  0  0  0  0  0  0  0
   -5.0478    2.4176   -1.3845 H   0  0  0  0  0  0  0  0  0  0  0  0
   -3.4538    2.9581   -0.8557 H   0  0  0  0  0  0  0  0  0  0  0  0
   -4.1486    0.2967   -2.1678 H   0  0  0  0  0  0  0  0  0  0  0  0
   -2.7611    1.3903   -2.4793 H   0  0  0  0  0  0  0  0  0  0  0  0
   -1.2291   -0.8770   -1.7709 H   0  0  0  0  0  0  0  0  0  0  0  0
    1.4713   -0.3589   -0.6174 H   0  0  0  0  0  0  0  0  0  0  0  0
    4.4753    2.4982    0.3482 H   0  0  0  0  0  0  0  0  0  0  0  0
    4.3939    2.8751   -1.3739 H   0  0  0  0  0  0  0  0  0  0  0  0
    5.7615    1.0294   -2.0007 H   0  0  0  0  0  0  0  0  0  0  0  0
    6.5112    1.4932   -0.4498 H   0  0  0  0  0  0  0  0  0  0  0  0
  1  2  2  0
  2  3  1  0
  3  4  1  0
  4  5  2  0
  5  6  1  0
  6  7  1  0
  7  8  2  0
  8  9  1  0
  9 10  1  0
 10 11  1  0
 11 12  1  0
 12 13  1  0
 13 14  1  0
 14 15  2  0
  2 16  1  0
 16 17  1  0
 17 18  2  0
 18 19  1  0
 19 20  1  0
 20 21  1  0
 15  4  1  0
 15  7  1  0
 13  9  2  0
 21 17  1  0
  3 22  1  0
  3 23  1  0
  5 24  1  0
  8 25  1  0
 10 26  1  0
 10 27  1  0
 11 28  1  0
 11 29  1  0
 12 30  1  0
 12 31  1  0
 14 32  1  0
 16 33  1  0
 19 34  1  0
 19 35  1  0
 20 36  1  0
 20 37  1  0
M  END
>  <Unnamed: 0>  (191) 
1229

>  <ID>  (191) 
TRAIN_1229

>  <Canonical_Smiles>  (191) 
O=C(Cc1coc2cc3CCCc3cc12)NC4=NCCS4

>  <Inhibition>  (191) 
36.1

>  <TDC_conf_true_inhibitor>  (191) 
1

>  <TDC_conf_non_inhibitor>  (191) 
0

>  <split>  (191) 
1

$$$$
191
     RDKit          3D

 26 28  0  0  0  0  0  0  0  0999 V2000
    4.1502   -1.6754    0.9646 N   0  0  0  0  0  0  0  0  0  0  0  0
    3.5606   -0.4732    0.6397 C   0  0  0  0  0  0  0  0  0  0  0  0
    4.2031    0.3150   -0.2149 N   0  0  0  0  0  0  0  0  0  0  0  0
    3.5919    1.4720   -0.5074 C   0  0  0  0  0  0  0  0  0  0  0  0
    4.4567    2.4694   -1.6052 Cl  0  0  0  0  0  0  0  0  0  0  0  0
    2.3863    1.8727   -0.0043 C   0  0  0  0  0  0  0  0  0  0  0  0
    1.8002    0.9695    0.8453 C   0  0  0  0  0  0  0  0  0  0  0  0
    0.2302    1.3228    1.6081 S   0  0  0  0  0  0  0  0  0  0  0  0
   -0.7725    0.9966    0.2296 C   0  0  0  0  0  0  0  0  0  0  0  0
   -0.6282    1.5587   -0.9532 N   0  0  0  0  0  0  0  0  0  0  0  0
   -1.6316    1.0321   -1.7264 C   0  0  0  0  0  0  0  0  0  0  0  0
   -2.3953    0.1450   -1.0043 C   0  0  0  0  0  0  0  0  0  0  0  0
   -3.5275   -0.6757   -1.2601 C   0  0  0  0  0  0  0  0  0  0  0  0
   -4.0207   -1.4441   -0.2696 C   0  0  0  0  0  0  0  0  0  0  0  0
   -3.4230   -1.4563    1.0564 C   0  0  0  0  0  0  0  0  0  0  0  0
   -2.3528   -0.6797    1.2980 C   0  0  0  0  0  0  0  0  0  0  0  0
   -1.8391    0.1206    0.2724 N   0  0  0  0  0  0  0  0  0  0  0  0
    2.3719   -0.2047    1.1793 N   0  0  0  0  0  0  0  0  0  0  0  0
    4.7980   -1.9565    0.2418 H   0  0  0  0  0  0  0  0  0  0  0  0
    3.4525   -2.3459    1.2539 H   0  0  0  0  0  0  0  0  0  0  0  0
    1.9250    2.8118   -0.2731 H   0  0  0  0  0  0  0  0  0  0  0  0
   -1.7517    1.3215   -2.7626 H   0  0  0  0  0  0  0  0  0  0  0  0
   -3.9823   -0.6756   -2.2459 H   0  0  0  0  0  0  0  0  0  0  0  0
   -4.8849   -2.0797   -0.4396 H   0  0  0  0  0  0  0  0  0  0  0  0
   -3.8538   -2.0934    1.8213 H   0  0  0  0  0  0  0  0  0  0  0  0
   -1.8630   -0.6475    2.2628 H   0  0  0  0  0  0  0  0  0  0  0  0
  1  2  1  0
  2  3  2  0
  3  4  1  0
  4  5  1  0
  4  6  2  0
  6  7  1  0
  7  8  1  0
  8  9  1  0
  9 10  2  0
 10 11  1  0
 11 12  2  0
 12 13  1  0
 13 14  2  0
 14 15  1  0
 15 16  2  0
 16 17  1  0
  7 18  2  0
 18  2  1  0
 17  9  1  0
 17 12  1  0
  1 19  1  0
  1 20  1  0
  6 21  1  0
 11 22  1  0
 13 23  1  0
 14 24  1  0
 15 25  1  0
 16 26  1  0
M  END
>  <Unnamed: 0>  (192) 
1234

>  <ID>  (192) 
TRAIN_1234

>  <Canonical_Smiles>  (192) 
Nc1nc(Cl)cc(Sc2ncc3ccccn23)n1

>  <Inhibition>  (192) 
47.9

>  <TDC_conf_true_inhibitor>  (192) 
0

>  <TDC_conf_non_inhibitor>  (192) 
1

>  <split>  (192) 
1

$$$$
192
     RDKit          3D

 37 39  0  0  0  0  0  0  0  0999 V2000
    8.2585    0.7571    3.6818 N   0  0  0  0  0  0  0  0  0  0  0  0
    7.3521    0.9332    2.9784 C   0  0  0  0  0  0  0  0  0  0  0  0
    6.2345    1.1425    2.1067 C   0  0  0  0  0  0  0  0  0  0  0  0
    6.2521    2.1856    1.1844 C   0  0  0  0  0  0  0  0  0  0  0  0
    5.1507    2.3374    0.3631 C   0  0  0  0  0  0  0  0  0  0  0  0
    4.0615    1.5411    0.4179 N   0  0  0  0  0  0  0  0  0  0  0  0
    4.0628    0.5341    1.3171 C   0  0  0  0  0  0  0  0  0  0  0  0
    2.6500   -0.5516    1.3789 S   0  0  0  0  0  0  0  0  0  0  0  0
    1.4324    0.4293    0.4244 C   0  0  0  0  0  0  0  0  0  0  0  0
    0.0773   -0.2709    0.3991 C   0  0  0  0  0  0  0  0  0  0  0  0
    0.0356   -1.5515   -0.4262 C   0  0  0  0  0  0  0  0  0  0  0  0
   -1.3510   -1.8239   -0.8520 N   0  0  0  0  0  0  0  0  0  0  0  0
   -2.0313   -0.7255   -0.9304 C   0  0  0  0  0  0  0  0  0  0  0  0
   -1.1761    0.7300   -0.4447 S   0  0  0  0  0  0  0  0  0  0  0  0
   -3.3428   -0.6498   -1.3306 N   0  0  0  0  0  0  0  0  0  0  0  0
   -4.1200   -1.8787   -1.5524 C   0  0  0  0  0  0  0  0  0  0  0  0
   -5.5486   -1.6946   -1.0226 C   0  0  0  0  0  0  0  0  0  0  0  0
   -6.2695   -0.6254   -1.6527 O   0  0  0  0  0  0  0  0  0  0  0  0
   -5.4166    0.3858   -2.2033 C   0  0  0  0  0  0  0  0  0  0  0  0
   -4.1174    0.5960   -1.4108 C   0  0  0  0  0  0  0  0  0  0  0  0
    5.1273    0.2978    2.1740 C   0  0  0  0  0  0  0  0  0  0  0  0
    7.0987    2.8599    1.0980 H   0  0  0  0  0  0  0  0  0  0  0  0
    5.1077    3.1294   -0.3802 H   0  0  0  0  0  0  0  0  0  0  0  0
    1.3377    1.4094    0.9053 H   0  0  0  0  0  0  0  0  0  0  0  0
    1.8110    0.5781   -0.5939 H   0  0  0  0  0  0  0  0  0  0  0  0
   -0.2906   -0.4606    1.4159 H   0  0  0  0  0  0  0  0  0  0  0  0
    0.3939   -2.3969    0.1726 H   0  0  0  0  0  0  0  0  0  0  0  0
    0.6743   -1.4924   -1.3165 H   0  0  0  0  0  0  0  0  0  0  0  0
   -3.6723   -2.7384   -1.0428 H   0  0  0  0  0  0  0  0  0  0  0  0
   -4.1382   -2.0908   -2.6278 H   0  0  0  0  0  0  0  0  0  0  0  0
   -6.1284   -2.6124   -1.1689 H   0  0  0  0  0  0  0  0  0  0  0  0
   -5.5296   -1.4876    0.0523 H   0  0  0  0  0  0  0  0  0  0  0  0
   -5.9914    1.3174   -2.2339 H   0  0  0  0  0  0  0  0  0  0  0  0
   -5.1925    0.1064   -3.2396 H   0  0  0  0  0  0  0  0  0  0  0  0
   -4.3592    0.9260   -0.3946 H   0  0  0  0  0  0  0  0  0  0  0  0
   -3.5407    1.3795   -1.9125 H   0  0  0  0  0  0  0  0  0  0  0  0
    5.0979   -0.5251    2.8821 H   0  0  0  0  0  0  0  0  0  0  0  0
  1  2  3  0
  2  3  1  0
  3  4  2  0
  4  5  1  0
  5  6  2  0
  6  7  1  0
  7  8  1  0
  8  9  1  0
  9 10  1  0
 10 11  1  0
 11 12  1  0
 12 13  2  0
 13 14  1  0
 13 15  1  0
 15 16  1  0
 16 17  1  0
 17 18  1  0
 18 19  1  0
 19 20  1  0
  7 21  2  0
 21  3  1  0
 14 10  1  0
 20 15  1  0
  4 22  1  0
  5 23  1  0
  9 24  1  0
  9 25  1  0
 10 26  1  0
 11 27  1  0
 11 28  1  0
 16 29  1  0
 16 30  1  0
 17 31  1  0
 17 32  1  0
 19 33  1  0
 19 34  1  0
 20 35  1  0
 20 36  1  0
 21 37  1  0
M  END
>  <Unnamed: 0>  (193) 
1252

>  <ID>  (193) 
TRAIN_1252

>  <Canonical_Smiles>  (193) 
N#Cc1ccnc(SCC2CN=C(S2)N3CCOCC3)c1

>  <Inhibition>  (193) 
45.2

>  <TDC_conf_true_inhibitor>  (193) 
0

>  <TDC_conf_non_inhibitor>  (193) 
0

>  <split>  (193) 
1

$$$$
193
     RDKit          3D

 45 47  0  0  0  0  0  0  0  0999 V2000
    5.2794    0.2353   -2.3886 C   0  0  0  0  0  0  0  0  0  0  0  0
    4.2331   -0.7201   -1.8237 C   0  0  0  0  0  0  0  0  0  0  0  0
    3.0640   -0.0079   -1.2997 N   0  0  0  0  0  0  0  0  0  0  0  0
    1.9063   -0.9168   -1.1867 C   0  0  0  0  0  0  0  0  0  0  0  0
    0.7890   -0.3276   -0.2986 C   0  0  0  0  0  0  0  0  0  0  0  0
    1.2068   -0.1904    1.1038 N   0  0  0  0  0  0  0  0  0  0  0  0
    2.6531    0.0686    1.2245 C   0  0  0  0  0  0  0  0  0  0  0  0
    3.3211    0.6935   -0.0259 C   0  0  0  0  0  0  0  0  0  0  0  0
    0.3594    0.6710    1.9581 C   0  0  0  0  0  0  0  0  0  0  0  0
    0.4384    2.1722    1.6398 C   0  0  0  0  0  0  0  0  0  0  0  0
   -1.1190    0.1807    2.0884 C   0  0  0  0  0  0  0  0  0  0  0  0
   -1.9892    0.6564    1.0076 N   0  0  0  0  0  0  0  0  0  0  0  0
   -3.2514    0.0579    0.8888 C   0  0  0  0  0  0  0  0  0  0  0  0
   -4.0818   -0.1710    1.9875 C   0  0  0  0  0  0  0  0  0  0  0  0
   -5.3285   -0.7432    1.8031 C   0  0  0  0  0  0  0  0  0  0  0  0
   -5.8498   -1.1130    0.6203 N   0  0  0  0  0  0  0  0  0  0  0  0
   -5.0601   -0.8767   -0.4614 C   0  0  0  0  0  0  0  0  0  0  0  0
   -5.4201   -1.1775   -1.8077 C   0  0  0  0  0  0  0  0  0  0  0  0
   -4.4358   -0.8377   -2.7052 C   0  0  0  0  0  0  0  0  0  0  0  0
   -3.0768   -0.1514   -1.9328 S   0  0  0  0  0  0  0  0  0  0  0  0
   -3.7916   -0.3039   -0.3667 C   0  0  0  0  0  0  0  0  0  0  0  0
    4.8478    0.8731   -3.1667 H   0  0  0  0  0  0  0  0  0  0  0  0
    6.0984   -0.3332   -2.8412 H   0  0  0  0  0  0  0  0  0  0  0  0
    5.7112    0.8804   -1.6187 H   0  0  0  0  0  0  0  0  0  0  0  0
    3.9237   -1.3731   -2.6500 H   0  0  0  0  0  0  0  0  0  0  0  0
    4.6808   -1.3653   -1.0575 H   0  0  0  0  0  0  0  0  0  0  0  0
    1.5012   -1.0985   -2.1890 H   0  0  0  0  0  0  0  0  0  0  0  0
    2.2077   -1.8907   -0.7777 H   0  0  0  0  0  0  0  0  0  0  0  0
   -0.0747   -0.9992   -0.3512 H   0  0  0  0  0  0  0  0  0  0  0  0
    0.4927    0.6373   -0.7268 H   0  0  0  0  0  0  0  0  0  0  0  0
    3.1363   -0.8988    1.4146 H   0  0  0  0  0  0  0  0  0  0  0  0
    2.8858    0.6808    2.1037 H   0  0  0  0  0  0  0  0  0  0  0  0
    2.9423    1.7145   -0.1434 H   0  0  0  0  0  0  0  0  0  0  0  0
    4.3939    0.7990    0.1755 H   0  0  0  0  0  0  0  0  0  0  0  0
    0.7629    0.5500    2.9744 H   0  0  0  0  0  0  0  0  0  0  0  0
    1.4609    2.5501    1.7409 H   0  0  0  0  0  0  0  0  0  0  0  0
    0.0973    2.4040    0.6256 H   0  0  0  0  0  0  0  0  0  0  0  0
   -0.1836    2.7423    2.3399 H   0  0  0  0  0  0  0  0  0  0  0  0
   -1.5079    0.5553    3.0445 H   0  0  0  0  0  0  0  0  0  0  0  0
   -1.1315   -0.9155    2.1419 H   0  0  0  0  0  0  0  0  0  0  0  0
   -1.5266    0.6851    0.1015 H   0  0  0  0  0  0  0  0  0  0  0  0
   -3.7741    0.1089    2.9887 H   0  0  0  0  0  0  0  0  0  0  0  0
   -5.9761   -0.9228    2.6581 H   0  0  0  0  0  0  0  0  0  0  0  0
   -6.3649   -1.6243   -2.0906 H   0  0  0  0  0  0  0  0  0  0  0  0
   -4.4501   -0.9582   -3.7803 H   0  0  0  0  0  0  0  0  0  0  0  0
  1  2  1  0
  2  3  1  0
  3  4  1  0
  4  5  1  0
  5  6  1  0
  6  7  1  0
  7  8  1  0
  6  9  1  0
  9 10  1  0
  9 11  1  0
 11 12  1  0
 12 13  1  0
 13 14  2  0
 14 15  1  0
 15 16  2  0
 16 17  1  0
 17 18  1  0
 18 19  2  0
 19 20  1  0
 20 21  1  0
  8  3  1  0
 21 13  1  0
 21 17  2  0
  1 22  1  0
  1 23  1  0
  1 24  1  0
  2 25  1  0
  2 26  1  0
  4 27  1  0
  4 28  1  0
  5 29  1  0
  5 30  1  0
  7 31  1  0
  7 32  1  0
  8 33  1  0
  8 34  1  0
  9 35  1  0
 10 36  1  0
 10 37  1  0
 10 38  1  0
 11 39  1  0
 11 40  1  0
 12 41  1  0
 14 42  1  0
 15 43  1  0
 18 44  1  0
 19 45  1  0
M  END
>  <Unnamed: 0>  (194) 
1259

>  <ID>  (194) 
TRAIN_1259

>  <Canonical_Smiles>  (194) 
CCN1CCN(CC1)C(C)CNc2ccnc3ccsc23

>  <Inhibition>  (194) 
42.6

>  <TDC_conf_true_inhibitor>  (194) 
0

>  <TDC_conf_non_inhibitor>  (194) 
1

>  <split>  (194) 
1

$$$$
194
     RDKit          3D

 41 43  0  0  0  0  0  0  0  0999 V2000
   -3.4551    1.0639    1.7220 C   0  0  0  0  0  0  0  0  0  0  0  0
   -3.2034    1.6303    0.3251 C   0  0  0  0  0  0  0  0  0  0  0  0
   -4.3674    1.3707   -0.6304 C   0  0  0  0  0  0  0  0  0  0  0  0
   -1.9138    1.2130   -0.2239 N   0  0  0  0  0  0  0  0  0  0  0  0
   -1.0319    2.1883   -0.5341 N   0  0  0  0  0  0  0  0  0  0  0  0
    0.0199    1.5060   -0.9404 C   0  0  0  0  0  0  0  0  0  0  0  0
    1.0633    2.2511   -1.2922 O   0  0  0  0  0  0  0  0  0  0  0  0
   -0.1201    0.1071   -0.9248 C   0  0  0  0  0  0  0  0  0  0  0  0
    0.9859   -0.8529   -1.2388 C   0  0  0  0  0  0  0  0  0  0  0  0
    0.5749   -2.6187   -1.3441 S   0  0  0  0  0  0  0  0  0  0  0  0
   -1.0028   -2.4963   -2.1992 C   0  0  0  0  0  0  0  0  0  0  0  0
   -2.1277   -2.3305   -1.2050 C   0  0  0  0  0  0  0  0  0  0  0  0
   -2.9865   -3.2051   -1.0558 O   0  0  0  0  0  0  0  0  0  0  0  0
   -2.2727   -1.1649   -0.5065 N   0  0  0  0  0  0  0  0  0  0  0  0
   -1.4570   -0.0542   -0.5689 C   0  0  0  0  0  0  0  0  0  0  0  0
    2.0458   -0.6390   -0.1577 C   0  0  0  0  0  0  0  0  0  0  0  0
    3.3176   -0.1578   -0.5156 C   0  0  0  0  0  0  0  0  0  0  0  0
    4.3054    0.0454    0.4525 C   0  0  0  0  0  0  0  0  0  0  0  0
    4.0420   -0.2325    1.7979 C   0  0  0  0  0  0  0  0  0  0  0  0
    2.7839   -0.7164    2.1697 C   0  0  0  0  0  0  0  0  0  0  0  0
    1.7963   -0.9182    1.2007 C   0  0  0  0  0  0  0  0  0  0  0  0
    5.1210   -0.0006    2.7881 C   0  0  0  0  0  0  0  0  0  0  0  0
    6.2379    0.4165    2.5427 O   0  0  0  0  0  0  0  0  0  0  0  0
    4.7516   -0.3016    4.0460 O   0  0  0  0  0  0  0  0  0  0  0  0
   -2.6091    1.2742    2.3858 H   0  0  0  0  0  0  0  0  0  0  0  0
   -4.3488    1.5182    2.1632 H   0  0  0  0  0  0  0  0  0  0  0  0
   -3.6074   -0.0187    1.7136 H   0  0  0  0  0  0  0  0  0  0  0  0
   -3.1324    2.7212    0.4416 H   0  0  0  0  0  0  0  0  0  0  0  0
   -5.2806    1.8466   -0.2570 H   0  0  0  0  0  0  0  0  0  0  0  0
   -4.5802    0.3049   -0.7505 H   0  0  0  0  0  0  0  0  0  0  0  0
   -4.1564    1.7819   -1.6237 H   0  0  0  0  0  0  0  0  0  0  0  0
    0.7807    3.1668   -1.1228 H   0  0  0  0  0  0  0  0  0  0  0  0
    1.4025   -0.5822   -2.2173 H   0  0  0  0  0  0  0  0  0  0  0  0
   -1.1667   -3.4366   -2.7364 H   0  0  0  0  0  0  0  0  0  0  0  0
   -1.0185   -1.6977   -2.9472 H   0  0  0  0  0  0  0  0  0  0  0  0
   -3.1559   -1.1291   -0.0145 H   0  0  0  0  0  0  0  0  0  0  0  0
    3.5470    0.0722   -1.5545 H   0  0  0  0  0  0  0  0  0  0  0  0
    5.2807    0.4229    0.1514 H   0  0  0  0  0  0  0  0  0  0  0  0
    2.5599   -0.9424    3.2092 H   0  0  0  0  0  0  0  0  0  0  0  0
    0.8259   -1.3006    1.5130 H   0  0  0  0  0  0  0  0  0  0  0  0
    5.5520   -0.1050    4.5762 H   0  0  0  0  0  0  0  0  0  0  0  0
  1  2  1  0
  2  3  1  0
  2  4  1  0
  4  5  1  0
  5  6  2  0
  6  7  1  0
  6  8  1  0
  8  9  1  0
  9 10  1  0
 10 11  1  0
 11 12  1  0
 12 13  2  0
 12 14  1  0
 14 15  1  0
  9 16  1  0
 16 17  2  0
 17 18  1  0
 18 19  2  0
 19 20  1  0
 20 21  2  0
 19 22  1  0
 22 23  2  0
 22 24  1  0
 15  4  1  0
 15  8  2  0
 21 16  1  0
  1 25  1  0
  1 26  1  0
  1 27  1  0
  2 28  1  0
  3 29  1  0
  3 30  1  0
  3 31  1  0
  7 32  1  0
  9 33  1  0
 11 34  1  0
 11 35  1  0
 14 36  1  0
 17 37  1  0
 18 38  1  0
 20 39  1  0
 21 40  1  0
 24 41  1  0
M  END
>  <Unnamed: 0>  (195) 
1260

>  <ID>  (195) 
TRAIN_1260

>  <Canonical_Smiles>  (195) 
CC(C)n1nc(O)c2C(SCC(=O)Nc12)c3ccc(cc3)C(=O)O

>  <Inhibition>  (195) 
36.6

>  <TDC_conf_true_inhibitor>  (195) 
0

>  <TDC_conf_non_inhibitor>  (195) 
1

>  <split>  (195) 
1

$$$$
195
     RDKit          3D

 54 56  0  0  0  0  0  0  0  0999 V2000
    6.6136   -1.9027    0.9459 C   0  0  0  0  0  0  0  0  0  0  0  0
    5.4098   -1.2590    0.3127 C   0  0  0  0  0  0  0  0  0  0  0  0
    4.4355   -2.0717   -0.2874 C   0  0  0  0  0  0  0  0  0  0  0  0
    3.3097   -1.5094   -0.8904 C   0  0  0  0  0  0  0  0  0  0  0  0
    3.1358   -0.1239   -0.8954 C   0  0  0  0  0  0  0  0  0  0  0  0
    4.1120    0.6981   -0.3181 C   0  0  0  0  0  0  0  0  0  0  0  0
    5.2514    0.1422    0.2904 C   0  0  0  0  0  0  0  0  0  0  0  0
    6.2824    1.0556    0.8965 C   0  0  0  0  0  0  0  0  0  0  0  0
    1.9168    0.4327   -1.5443 C   0  0  0  0  0  0  0  0  0  0  0  0
    1.3806   -0.1744   -2.4637 O   0  0  0  0  0  0  0  0  0  0  0  0
    1.4359    1.6150   -1.0216 N   0  0  0  0  0  0  0  0  0  0  0  0
    0.2193    2.2371   -1.5071 C   0  0  0  0  0  0  0  0  0  0  0  0
   -0.9862    1.9375   -0.6108 C   0  0  0  0  0  0  0  0  0  0  0  0
   -1.4690    0.4863   -0.7278 C   0  0  0  0  0  0  0  0  0  0  0  0
   -2.7854    0.0931    0.0273 C   0  0  0  0  0  0  0  0  0  0  0  0
   -3.9944    0.9253   -0.4876 C   0  0  0  0  0  0  0  0  0  0  0  0
   -4.5321    1.9174    0.5360 C   0  0  0  0  0  0  0  0  0  0  0  0
   -3.4559    2.5582    1.2047 O   0  0  0  0  0  0  0  0  0  0  0  0
   -2.7878    1.6777    2.1002 C   0  0  0  0  0  0  0  0  0  0  0  0
   -2.6319    0.2559    1.5627 C   0  0  0  0  0  0  0  0  0  0  0  0
   -3.0319   -1.4213   -0.2728 C   0  0  0  0  0  0  0  0  0  0  0  0
   -4.2038   -1.9139    0.3982 O   0  0  0  0  0  0  0  0  0  0  0  0
   -4.6582   -2.9621   -0.4547 C   0  0  0  0  0  0  0  0  0  0  0  0
   -4.3733   -2.4205   -1.8287 C   0  0  0  0  0  0  0  0  0  0  0  0
   -3.1608   -1.6825   -1.6787 O   0  0  0  0  0  0  0  0  0  0  0  0
    6.5459   -2.9955    0.9192 H   0  0  0  0  0  0  0  0  0  0  0  0
    6.6967   -1.6067    1.9964 H   0  0  0  0  0  0  0  0  0  0  0  0
    7.5235   -1.6131    0.4108 H   0  0  0  0  0  0  0  0  0  0  0  0
    4.5478   -3.1541   -0.2941 H   0  0  0  0  0  0  0  0  0  0  0  0
    2.5672   -2.1548   -1.3555 H   0  0  0  0  0  0  0  0  0  0  0  0
    4.0092    1.7791   -0.3648 H   0  0  0  0  0  0  0  0  0  0  0  0
    7.2531    0.9082    0.4127 H   0  0  0  0  0  0  0  0  0  0  0  0
    6.3753    0.8640    1.9700 H   0  0  0  0  0  0  0  0  0  0  0  0
    6.0098    2.1090    0.7721 H   0  0  0  0  0  0  0  0  0  0  0  0
    1.8332    1.9756   -0.1657 H   0  0  0  0  0  0  0  0  0  0  0  0
    0.4083    3.3161   -1.5048 H   0  0  0  0  0  0  0  0  0  0  0  0
    0.0241    1.9337   -2.5411 H   0  0  0  0  0  0  0  0  0  0  0  0
   -1.7904    2.6216   -0.8991 H   0  0  0  0  0  0  0  0  0  0  0  0
   -0.7105    2.1609    0.4230 H   0  0  0  0  0  0  0  0  0  0  0  0
   -0.6658   -0.1747   -0.3770 H   0  0  0  0  0  0  0  0  0  0  0  0
   -1.5973    0.2672   -1.7960 H   0  0  0  0  0  0  0  0  0  0  0  0
   -3.7051    1.4734   -1.3926 H   0  0  0  0  0  0  0  0  0  0  0  0
   -4.8312    0.2903   -0.7978 H   0  0  0  0  0  0  0  0  0  0  0  0
   -5.1885    1.4271    1.2654 H   0  0  0  0  0  0  0  0  0  0  0  0
   -5.1269    2.6851    0.0303 H   0  0  0  0  0  0  0  0  0  0  0  0
   -3.3385    1.6619    3.0485 H   0  0  0  0  0  0  0  0  0  0  0  0
   -1.8100    2.1136    2.3268 H   0  0  0  0  0  0  0  0  0  0  0  0
   -3.4035   -0.3421    2.0660 H   0  0  0  0  0  0  0  0  0  0  0  0
   -1.6815   -0.1683    1.9107 H   0  0  0  0  0  0  0  0  0  0  0  0
   -2.1784   -2.0112    0.0871 H   0  0  0  0  0  0  0  0  0  0  0  0
   -4.0695   -3.8614   -0.2426 H   0  0  0  0  0  0  0  0  0  0  0  0
   -5.7164   -3.1735   -0.2828 H   0  0  0  0  0  0  0  0  0  0  0  0
   -4.2604   -3.2003   -2.5861 H   0  0  0  0  0  0  0  0  0  0  0  0
   -5.1524   -1.7222   -2.1513 H   0  0  0  0  0  0  0  0  0  0  0  0
  1  2  1  0
  2  3  2  0
  3  4  1  0
  4  5  2  0
  5  6  1  0
  6  7  2  0
  7  8  1  0
  5  9  1  0
  9 10  2  0
  9 11  1  0
 11 12  1  0
 12 13  1  0
 13 14  1  0
 14 15  1  0
 15 16  1  0
 16 17  1  0
 17 18  1  0
 18 19  1  0
 19 20  1  0
 15 21  1  0
 21 22  1  0
 22 23  1  0
 23 24  1  0
 24 25  1  0
  7  2  1  0
 20 15  1  0
 25 21  1  0
  1 26  1  0
  1 27  1  0
  1 28  1  0
  3 29  1  0
  4 30  1  0
  6 31  1  0
  8 32  1  0
  8 33  1  0
  8 34  1  0
 11 35  1  0
 12 36  1  0
 12 37  1  0
 13 38  1  0
 13 39  1  0
 14 40  1  0
 14 41  1  0
 16 42  1  0
 16 43  1  0
 17 44  1  0
 17 45  1  0
 19 46  1  0
 19 47  1  0
 20 48  1  0
 20 49  1  0
 21 50  1  0
 23 51  1  0
 23 52  1  0
 24 53  1  0
 24 54  1  0
M  END
>  <Unnamed: 0>  (196) 
1276

>  <ID>  (196) 
TRAIN_1276

>  <Canonical_Smiles>  (196) 
Cc1ccc(cc1C)C(=O)NCCCC2(CCOCC2)C3OCCO3

>  <Inhibition>  (196) 
42.1

>  <TDC_conf_true_inhibitor>  (196) 
0

>  <TDC_conf_non_inhibitor>  (196) 
1

>  <split>  (196) 
1

$$$$
196
     RDKit          3D

 42 44  0  0  0  0  0  0  0  0999 V2000
    6.8059    0.5547    0.5873 N   0  0  0  0  0  0  0  0  0  0  0  0
    6.0633   -0.4730    0.0761 C   0  0  0  0  0  0  0  0  0  0  0  0
    6.5956   -1.5681   -0.0889 O   0  0  0  0  0  0  0  0  0  0  0  0
    4.6734   -0.1898   -0.2407 C   0  0  0  0  0  0  0  0  0  0  0  0
    3.7507   -1.0785   -0.7677 C   0  0  0  0  0  0  0  0  0  0  0  0
    2.4639   -0.4917   -0.9648 C   0  0  0  0  0  0  0  0  0  0  0  0
    1.2481   -1.1602   -1.5387 C   0  0  0  0  0  0  0  0  0  0  0  0
    0.0012   -0.4657   -1.1323 N   0  0  0  0  0  0  0  0  0  0  0  0
   -0.4117   -0.8364    0.2350 C   0  0  0  0  0  0  0  0  0  0  0  0
   -1.9012   -0.5548    0.6388 C   0  0  0  0  0  0  0  0  0  0  0  0
   -2.2090   -1.4698    1.7361 O   0  0  0  0  0  0  0  0  0  0  0  0
   -2.8689   -0.9154   -0.5190 C   0  0  0  0  0  0  0  0  0  0  0  0
   -4.2676   -1.0952   -0.0814 N   0  0  0  0  0  0  0  0  0  0  0  0
   -4.9783    0.1873   -0.0182 C   0  0  0  0  0  0  0  0  0  0  0  0
   -4.4349    1.1582    1.0340 C   0  0  0  0  0  0  0  0  0  0  0  0
   -3.1444    1.6437    0.6673 O   0  0  0  0  0  0  0  0  0  0  0  0
   -2.0736    0.8730    1.2139 C   0  0  0  0  0  0  0  0  0  0  0  0
    0.1174    0.9892   -1.3837 C   0  0  0  0  0  0  0  0  0  0  0  0
    1.2572    1.7113   -0.6253 C   0  0  0  0  0  0  0  0  0  0  0  0
    2.4657    0.8326   -0.5787 C   0  0  0  0  0  0  0  0  0  0  0  0
    3.9676    1.3548    0.0095 S   0  0  0  0  0  0  0  0  0  0  0  0
    6.4130    1.4732    0.7341 H   0  0  0  0  0  0  0  0  0  0  0  0
    7.7749    0.3771    0.8084 H   0  0  0  0  0  0  0  0  0  0  0  0
    4.0023   -2.1074   -1.0022 H   0  0  0  0  0  0  0  0  0  0  0  0
    1.3207   -1.1336   -2.6336 H   0  0  0  0  0  0  0  0  0  0  0  0
    1.2173   -2.2209   -1.2624 H   0  0  0  0  0  0  0  0  0  0  0  0
    0.2605   -0.4162    0.9948 H   0  0  0  0  0  0  0  0  0  0  0  0
   -0.2793   -1.9237    0.3331 H   0  0  0  0  0  0  0  0  0  0  0  0
   -2.2170   -2.3693    1.3601 H   0  0  0  0  0  0  0  0  0  0  0  0
   -2.5703   -1.8918   -0.9216 H   0  0  0  0  0  0  0  0  0  0  0  0
   -2.7969   -0.2068   -1.3526 H   0  0  0  0  0  0  0  0  0  0  0  0
   -4.2463   -1.4936    0.8609 H   0  0  0  0  0  0  0  0  0  0  0  0
   -6.0268   -0.0277    0.2160 H   0  0  0  0  0  0  0  0  0  0  0  0
   -4.9650    0.6583   -1.0085 H   0  0  0  0  0  0  0  0  0  0  0  0
   -5.0978    2.0296    1.0712 H   0  0  0  0  0  0  0  0  0  0  0  0
   -4.4308    0.7159    2.0375 H   0  0  0  0  0  0  0  0  0  0  0  0
   -1.1764    1.4685    1.0365 H   0  0  0  0  0  0  0  0  0  0  0  0
   -2.1825    0.8476    2.3062 H   0  0  0  0  0  0  0  0  0  0  0  0
   -0.8353    1.4956   -1.1989 H   0  0  0  0  0  0  0  0  0  0  0  0
    0.2881    1.1206   -2.4619 H   0  0  0  0  0  0  0  0  0  0  0  0
    0.9435    1.9380    0.3994 H   0  0  0  0  0  0  0  0  0  0  0  0
    1.4833    2.6602   -1.1246 H   0  0  0  0  0  0  0  0  0  0  0  0
  1  2  1  0
  2  3  2  0
  2  4  1  0
  4  5  2  0
  5  6  1  0
  6  7  1  0
  7  8  1  0
  8  9  1  0
  9 10  1  0
 10 11  1  0
 10 12  1  0
 12 13  1  0
 13 14  1  0
 14 15  1  0
 15 16  1  0
 16 17  1  0
  8 18  1  0
 18 19  1  0
 19 20  1  0
 20 21  1  0
 21  4  1  0
 20  6  2  0
 17 10  1  0
  1 22  1  0
  1 23  1  0
  5 24  1  0
  7 25  1  0
  7 26  1  0
  9 27  1  0
  9 28  1  0
 11 29  1  0
 12 30  1  0
 12 31  1  0
 13 32  1  0
 14 33  1  0
 14 34  1  0
 15 35  1  0
 15 36  1  0
 17 37  1  0
 17 38  1  0
 18 39  1  0
 18 40  1  0
 19 41  1  0
 19 42  1  0
M  END
>  <Unnamed: 0>  (197) 
1277

>  <ID>  (197) 
TRAIN_1277

>  <Canonical_Smiles>  (197) 
NC(=O)c1cc2CN(CC3(O)CNCCOC3)CCc2s1

>  <Inhibition>  (197) 
44.6

>  <TDC_conf_true_inhibitor>  (197) 
0

>  <TDC_conf_non_inhibitor>  (197) 
1

>  <split>  (197) 
1

$$$$
197
     RDKit          3D

 50 54  0  0  0  0  0  0  0  0999 V2000
   -5.9127    1.4626   -1.5259 C   0  0  0  0  0  0  0  0  0  0  0  0
   -4.9917    1.1099   -0.3958 C   0  0  0  0  0  0  0  0  0  0  0  0
   -4.2661    2.1073    0.2661 C   0  0  0  0  0  0  0  0  0  0  0  0
   -3.4305    1.7802    1.3375 C   0  0  0  0  0  0  0  0  0  0  0  0
   -3.3010    0.4546    1.7578 C   0  0  0  0  0  0  0  0  0  0  0  0
   -4.0616   -0.5324    1.1284 C   0  0  0  0  0  0  0  0  0  0  0  0
   -4.8968   -0.2115    0.0551 C   0  0  0  0  0  0  0  0  0  0  0  0
   -2.4900    0.1154    2.8433 N   0  0  0  0  0  0  0  0  0  0  0  0
   -1.2101    0.0479    2.6977 C   0  0  0  0  0  0  0  0  0  0  0  0
   -0.2818   -0.3715    4.1887 S   0  0  0  0  0  0  0  0  0  0  0  0
    1.2316   -0.1938    3.3484 C   0  0  0  0  0  0  0  0  0  0  0  0
    1.0508    0.1136    2.0530 C   0  0  0  0  0  0  0  0  0  0  0  0
   -0.2911    0.2158    1.6410 N   0  0  0  0  0  0  0  0  0  0  0  0
   -0.6278    0.6351    0.3805 N   0  0  0  0  0  0  0  0  0  0  0  0
   -0.8654   -0.2920   -0.4991 C   0  0  0  0  0  0  0  0  0  0  0  0
   -0.7987   -1.7848   -0.2694 C   0  0  0  0  0  0  0  0  0  0  0  0
   -0.5028   -2.4026   -1.6221 C   0  0  0  0  0  0  0  0  0  0  0  0
   -1.4584   -1.4354   -2.8109 S   0  0  0  0  0  0  0  0  0  0  0  0
   -1.2841    0.1160   -1.8926 C   0  0  0  0  0  0  0  0  0  0  0  0
    2.1755    0.3213    1.1300 C   0  0  0  0  0  0  0  0  0  0  0  0
    2.3393    1.5478    0.4714 C   0  0  0  0  0  0  0  0  0  0  0  0
    3.4005    1.7421   -0.4159 C   0  0  0  0  0  0  0  0  0  0  0  0
    4.3152    0.7170   -0.6457 C   0  0  0  0  0  0  0  0  0  0  0  0
    5.3035    0.9812   -1.5501 O   0  0  0  0  0  0  0  0  0  0  0  0
    6.3455    0.0197   -1.6056 C   0  0  0  0  0  0  0  0  0  0  0  0
    6.1360   -1.3904   -1.0556 C   0  0  0  0  0  0  0  0  0  0  0  0
    6.9031   -2.3227   -1.2839 O   0  0  0  0  0  0  0  0  0  0  0  0
    5.0537   -1.5486   -0.2373 N   0  0  0  0  0  0  0  0  0  0  0  0
    4.1605   -0.5069    0.0064 C   0  0  0  0  0  0  0  0  0  0  0  0
    3.0973   -0.7090    0.8897 C   0  0  0  0  0  0  0  0  0  0  0  0
   -5.5380    2.3308   -2.0782 H   0  0  0  0  0  0  0  0  0  0  0  0
   -6.9100    1.6925   -1.1385 H   0  0  0  0  0  0  0  0  0  0  0  0
   -5.9909    0.6344   -2.2381 H   0  0  0  0  0  0  0  0  0  0  0  0
   -4.3479    3.1464   -0.0437 H   0  0  0  0  0  0  0  0  0  0  0  0
   -2.8734    2.5619    1.8460 H   0  0  0  0  0  0  0  0  0  0  0  0
   -4.0068   -1.5579    1.4826 H   0  0  0  0  0  0  0  0  0  0  0  0
   -5.4784   -0.9984   -0.4195 H   0  0  0  0  0  0  0  0  0  0  0  0
    2.1831   -0.3087    3.8495 H   0  0  0  0  0  0  0  0  0  0  0  0
   -1.7670   -2.1237    0.1128 H   0  0  0  0  0  0  0  0  0  0  0  0
   -0.0274   -2.0641    0.4514 H   0  0  0  0  0  0  0  0  0  0  0  0
    0.5600   -2.3136   -1.8697 H   0  0  0  0  0  0  0  0  0  0  0  0
   -0.7824   -3.4590   -1.6576 H   0  0  0  0  0  0  0  0  0  0  0  0
   -0.5092    0.7419   -2.3428 H   0  0  0  0  0  0  0  0  0  0  0  0
   -2.2320    0.6567   -1.8657 H   0  0  0  0  0  0  0  0  0  0  0  0
    1.6317    2.3589    0.6382 H   0  0  0  0  0  0  0  0  0  0  0  0
    3.5100    2.6940   -0.9294 H   0  0  0  0  0  0  0  0  0  0  0  0
    6.6168   -0.0890   -2.6618 H   0  0  0  0  0  0  0  0  0  0  0  0
    7.2127    0.4421   -1.0845 H   0  0  0  0  0  0  0  0  0  0  0  0
    4.9289   -2.4618    0.1783 H   0  0  0  0  0  0  0  0  0  0  0  0
    2.9782   -1.6693    1.3854 H   0  0  0  0  0  0  0  0  0  0  0  0
  1  2  1  0
  2  3  2  0
  3  4  1  0
  4  5  2  0
  5  6  1  0
  6  7  2  0
  5  8  1  0
  8  9  2  0
  9 10  1  0
 10 11  1  0
 11 12  2  0
 12 13  1  0
 13 14  1  0
 14 15  2  0
 15 16  1  0
 16 17  1  0
 17 18  1  0
 18 19  1  0
 12 20  1  0
 20 21  2  0
 21 22  1  0
 22 23  2  0
 23 24  1  0
 24 25  1  0
 25 26  1  0
 26 27  2  0
 26 28  1  0
 28 29  1  0
 29 30  2  0
  7  2  1  0
 13  9  1  0
 19 15  1  0
 30 20  1  0
 29 23  1  0
  1 31  1  0
  1 32  1  0
  1 33  1  0
  3 34  1  0
  4 35  1  0
  6 36  1  0
  7 37  1  0
 11 38  1  0
 16 39  1  0
 16 40  1  0
 17 41  1  0
 17 42  1  0
 19 43  1  0
 19 44  1  0
 21 45  1  0
 22 46  1  0
 25 47  1  0
 25 48  1  0
 28 49  1  0
 30 50  1  0
M  END
>  <Unnamed: 0>  (198) 
1281

>  <ID>  (198) 
TRAIN_1281

>  <Canonical_Smiles>  (198) 
Cc1ccc(cc1)\N=C/2\SC=C(N2\N=C\3/CCSC3)c4ccc5OCC(=O)Nc5c4

>  <Inhibition>  (198) 
81.5

>  <TDC_conf_true_inhibitor>  (198) 
1

>  <TDC_conf_non_inhibitor>  (198) 
0

>  <split>  (198) 
1

$$$$
198
     RDKit          3D

 37 40  0  0  0  0  0  0  0  0999 V2000
   -4.5770    2.1400    1.8411 O   0  0  0  0  0  0  0  0  0  0  0  0
   -3.2223    2.0280    1.8010 C   0  0  0  0  0  0  0  0  0  0  0  0
   -2.4869    2.7338    2.7482 C   0  0  0  0  0  0  0  0  0  0  0  0
   -1.0890    2.6413    2.7711 C   0  0  0  0  0  0  0  0  0  0  0  0
   -0.4149    1.8404    1.8458 C   0  0  0  0  0  0  0  0  0  0  0  0
   -1.1555    1.1528    0.8904 C   0  0  0  0  0  0  0  0  0  0  0  0
   -0.6746    0.1824   -0.1635 C   0  0  0  0  0  0  0  0  0  0  0  0
   -1.9059    0.1397   -1.0868 C   0  0  0  0  0  0  0  0  0  0  0  0
   -3.1287    0.3632   -0.1930 C   0  0  0  0  0  0  0  0  0  0  0  0
   -2.5579    1.2447    0.8734 C   0  0  0  0  0  0  0  0  0  0  0  0
    0.5097    0.6806   -0.8800 N   0  0  0  0  0  0  0  0  0  0  0  0
    1.2569   -0.3534   -1.5212 C   0  0  0  0  0  0  0  0  0  0  0  0
    1.0963   -0.6193   -2.8862 C   0  0  0  0  0  0  0  0  0  0  0  0
    1.7454   -1.6209   -3.5142 N   0  0  0  0  0  0  0  0  0  0  0  0
    2.6001   -2.4195   -2.8080 N   0  0  0  0  0  0  0  0  0  0  0  0
    2.8087   -2.2219   -1.4996 C   0  0  0  0  0  0  0  0  0  0  0  0
    3.6914   -3.0599   -0.8278 C   0  0  0  0  0  0  0  0  0  0  0  0
    3.9520   -2.9129    0.5342 C   0  0  0  0  0  0  0  0  0  0  0  0
    3.3180   -1.9065    1.2457 C   0  0  0  0  0  0  0  0  0  0  0  0
    2.4288   -1.0543    0.5899 C   0  0  0  0  0  0  0  0  0  0  0  0
    2.1520   -1.1907   -0.7948 C   0  0  0  0  0  0  0  0  0  0  0  0
    0.2531    0.1595   -3.7451 C   0  0  0  0  0  0  0  0  0  0  0  0
   -0.4398    0.7747   -4.4482 N   0  0  0  0  0  0  0  0  0  0  0  0
   -4.9551    1.6514    1.0930 H   0  0  0  0  0  0  0  0  0  0  0  0
   -3.0015    3.3546    3.4770 H   0  0  0  0  0  0  0  0  0  0  0  0
   -0.5291    3.1938    3.5220 H   0  0  0  0  0  0  0  0  0  0  0  0
    0.6657    1.7668    1.8933 H   0  0  0  0  0  0  0  0  0  0  0  0
   -0.5099   -0.7906    0.3173 H   0  0  0  0  0  0  0  0  0  0  0  0
   -1.8607    0.9539   -1.8238 H   0  0  0  0  0  0  0  0  0  0  0  0
   -1.9744   -0.7980   -1.6481 H   0  0  0  0  0  0  0  0  0  0  0  0
   -3.9384    0.8425   -0.7501 H   0  0  0  0  0  0  0  0  0  0  0  0
   -3.4791   -0.5776    0.2439 H   0  0  0  0  0  0  0  0  0  0  0  0
    1.1201    1.1786   -0.2348 H   0  0  0  0  0  0  0  0  0  0  0  0
    4.1914   -3.8515   -1.3829 H   0  0  0  0  0  0  0  0  0  0  0  0
    4.6479   -3.5842    1.0314 H   0  0  0  0  0  0  0  0  0  0  0  0
    3.5129   -1.7822    2.3085 H   0  0  0  0  0  0  0  0  0  0  0  0
    1.9503   -0.2791    1.1811 H   0  0  0  0  0  0  0  0  0  0  0  0
  1  2  1  0
  2  3  2  0
  3  4  1  0
  4  5  2  0
  5  6  1  0
  6  7  1  0
  7  8  1  0
  8  9  1  0
  9 10  1  0
  7 11  1  0
 11 12  1  0
 12 13  2  0
 13 14  1  0
 14 15  2  0
 15 16  1  0
 16 17  2  0
 17 18  1  0
 18 19  2  0
 19 20  1  0
 20 21  2  0
 13 22  1  0
 22 23  3  0
 10  2  1  0
 10  6  2  0
 21 12  1  0
 21 16  1  0
  1 24  1  0
  3 25  1  0
  4 26  1  0
  5 27  1  0
  7 28  1  0
  8 29  1  0
  8 30  1  0
  9 31  1  0
  9 32  1  0
 11 33  1  0
 17 34  1  0
 18 35  1  0
 19 36  1  0
 20 37  1  0
M  END
>  <Unnamed: 0>  (199) 
1282

>  <ID>  (199) 
TRAIN_1282

>  <Canonical_Smiles>  (199) 
Oc1cccc2C(CCc12)Nc3c(nnc4ccccc34)C#N

>  <Inhibition>  (199) 
60.4

>  <TDC_conf_true_inhibitor>  (199) 
1

>  <TDC_conf_non_inhibitor>  (199) 
0

>  <split>  (199) 
1

$$$$
199
     RDKit          3D

 37 38  0  0  0  0  0  0  0  0999 V2000
    4.7784    0.8649   -0.8799 C   0  0  0  0  0  0  0  0  0  0  0  0
    3.7067    1.5240   -0.0236 C   0  0  0  0  0  0  0  0  0  0  0  0
    2.5202    0.5986    0.3010 C   0  0  0  0  0  0  0  0  0  0  0  0
    1.7221    0.1912   -0.9516 C   0  0  0  0  0  0  0  0  0  0  0  0
    0.5620   -0.7607   -0.6160 C   0  0  0  0  0  0  0  0  0  0  0  0
   -0.1758   -0.3595    0.6244 C   0  0  0  0  0  0  0  0  0  0  0  0
    0.2910    0.5676    1.4743 C   0  0  0  0  0  0  0  0  0  0  0  0
    1.5902    1.2876    1.3262 C   0  0  0  0  0  0  0  0  0  0  0  0
   -0.7696    0.8080    2.8253 S   0  0  0  0  0  0  0  0  0  0  0  0
   -1.8749   -0.4345    2.2319 C   0  0  0  0  0  0  0  0  0  0  0  0
   -2.8899   -0.7807    2.8129 O   0  0  0  0  0  0  0  0  0  0  0  0
   -1.3933   -0.9046    1.0108 N   0  0  0  0  0  0  0  0  0  0  0  0
   -2.0584   -2.0104    0.3356 C   0  0  0  0  0  0  0  0  0  0  0  0
   -3.4896   -1.7360   -0.1036 C   0  0  0  0  0  0  0  0  0  0  0  0
   -3.6227   -0.6908   -1.5353 S   0  0  0  0  0  6  0  0  0  0  0  0
   -4.9978   -0.7739   -1.9929 O   0  0  0  0  0  0  0  0  0  0  0  0
   -2.5362   -1.0037   -2.4435 O   0  0  0  0  0  0  0  0  0  0  0  0
   -3.3817    0.9606   -0.9232 C   0  0  0  0  0  0  0  0  0  0  0  0
    5.1257   -0.0686   -0.4262 H   0  0  0  0  0  0  0  0  0  0  0  0
    4.4122    0.6472   -1.8872 H   0  0  0  0  0  0  0  0  0  0  0  0
    5.6399    1.5329   -0.9808 H   0  0  0  0  0  0  0  0  0  0  0  0
    3.3509    2.4299   -0.5293 H   0  0  0  0  0  0  0  0  0  0  0  0
    4.1731    1.8489    0.9149 H   0  0  0  0  0  0  0  0  0  0  0  0
    2.9169   -0.3165    0.7635 H   0  0  0  0  0  0  0  0  0  0  0  0
    2.3681   -0.3018   -1.6860 H   0  0  0  0  0  0  0  0  0  0  0  0
    1.3219    1.0913   -1.4371 H   0  0  0  0  0  0  0  0  0  0  0  0
   -0.1104   -0.7840   -1.4783 H   0  0  0  0  0  0  0  0  0  0  0  0
    0.9579   -1.7743   -0.4783 H   0  0  0  0  0  0  0  0  0  0  0  0
    2.1085    1.3377    2.2919 H   0  0  0  0  0  0  0  0  0  0  0  0
    1.3847    2.3201    1.0157 H   0  0  0  0  0  0  0  0  0  0  0  0
   -1.4570   -2.3714   -0.5033 H   0  0  0  0  0  0  0  0  0  0  0  0
   -2.0881   -2.8302    1.0652 H   0  0  0  0  0  0  0  0  0  0  0  0
   -4.1141   -1.3021    0.6811 H   0  0  0  0  0  0  0  0  0  0  0  0
   -3.9515   -2.6859   -0.3981 H   0  0  0  0  0  0  0  0  0  0  0  0
   -3.6260    1.6555   -1.7300 H   0  0  0  0  0  0  0  0  0  0  0  0
   -4.0518    1.1269   -0.0781 H   0  0  0  0  0  0  0  0  0  0  0  0
   -2.3416    1.0970   -0.6328 H   0  0  0  0  0  0  0  0  0  0  0  0
  1  2  1  0
  2  3  1  0
  3  4  1  0
  4  5  1  0
  5  6  1  0
  6  7  2  0
  7  8  1  0
  7  9  1  0
  9 10  1  0
 10 11  2  0
 10 12  1  0
 12 13  1  0
 13 14  1  0
 14 15  1  0
 15 16  2  0
 15 17  2  0
 15 18  1  0
  8  3  1  0
 12  6  1  0
  1 19  1  0
  1 20  1  0
  1 21  1  0
  2 22  1  0
  2 23  1  0
  3 24  1  0
  4 25  1  0
  4 26  1  0
  5 27  1  0
  5 28  1  0
  8 29  1  0
  8 30  1  0
 13 31  1  0
 13 32  1  0
 14 33  1  0
 14 34  1  0
 18 35  1  0
 18 36  1  0
 18 37  1  0
M  END
>  <Unnamed: 0>  (200) 
1285

>  <ID>  (200) 
TRAIN_1285

>  <Canonical_Smiles>  (200) 
CCC1CCC2=C(C1)SC(=O)N2CCS(=O)(=O)C

>  <Inhibition>  (200) 
17.2

>  <TDC_conf_true_inhibitor>  (200) 
0

>  <TDC_conf_non_inhibitor>  (200) 
1

>  <split>  (200) 
1

$$$$
200
     RDKit          3D

 44 46  0  0  0  0  0  0  0  0999 V2000
    7.5505    1.0556   -0.1261 C   0  0  0  0  0  0  0  0  0  0  0  0
    6.2318    0.3358   -0.0800 C   0  0  0  0  0  0  0  0  0  0  0  0
    6.1484   -0.9748   -0.3609 C   0  0  0  0  0  0  0  0  0  0  0  0
    4.8331   -1.6531   -0.3066 C   0  0  0  0  0  0  0  0  0  0  0  0
    4.7574   -2.8513   -0.5613 O   0  0  0  0  0  0  0  0  0  0  0  0
    3.7972   -0.8155    0.0431 N   0  0  0  0  0  0  0  0  0  0  0  0
    2.4988   -1.2630    0.1413 N   0  0  0  0  0  0  0  0  0  0  0  0
    1.7425   -0.2654    0.4830 C   0  0  0  0  0  0  0  0  0  0  0  0
    0.2456   -0.3786    0.6514 C   0  0  0  0  0  0  0  0  0  0  0  0
   -0.3765   -0.3250   -0.6784 N   0  0  0  0  0  0  0  0  0  0  0  0
   -1.8437   -0.3284   -0.6981 C   0  0  0  0  0  0  0  0  0  0  0  0
   -2.6025   -1.0493    0.4063 C   0  0  0  0  0  0  0  0  0  0  0  0
   -4.0398   -0.5653    0.1847 C   0  0  0  0  0  0  0  0  0  0  0  0
   -4.8076   -1.4641   -0.7887 C   0  0  0  0  0  0  0  0  0  0  0  0
   -4.8073   -0.4486    1.4997 C   0  0  0  0  0  0  0  0  0  0  0  0
   -3.9514    0.7470   -0.4095 O   0  0  0  0  0  0  0  0  0  0  0  0
   -2.5722    1.0377   -0.7440 C   0  0  0  0  0  0  0  0  0  0  0  0
   -2.5343    1.6581   -2.1407 C   0  0  0  0  0  0  0  0  0  0  0  0
   -2.0784    2.0629    0.2823 C   0  0  0  0  0  0  0  0  0  0  0  0
    2.5161    1.2855    0.7131 S   0  0  0  0  0  0  0  0  0  0  0  0
    4.0122    0.5117    0.3047 C   0  0  0  0  0  0  0  0  0  0  0  0
    5.1507    1.1175    0.2648 N   0  0  0  0  0  0  0  0  0  0  0  0
    7.5127    1.8690   -0.8584 H   0  0  0  0  0  0  0  0  0  0  0  0
    7.7831    1.4831    0.8548 H   0  0  0  0  0  0  0  0  0  0  0  0
    8.3748    0.3911   -0.4059 H   0  0  0  0  0  0  0  0  0  0  0  0
    6.9994   -1.5858   -0.6317 H   0  0  0  0  0  0  0  0  0  0  0  0
    0.0385   -1.3395    1.1356 H   0  0  0  0  0  0  0  0  0  0  0  0
   -0.1072    0.4258    1.3018 H   0  0  0  0  0  0  0  0  0  0  0  0
   -0.0400   -1.1356   -1.2070 H   0  0  0  0  0  0  0  0  0  0  0  0
   -2.1026   -0.8491   -1.6315 H   0  0  0  0  0  0  0  0  0  0  0  0
   -2.5021   -2.1384    0.3535 H   0  0  0  0  0  0  0  0  0  0  0  0
   -2.2535   -0.7340    1.3963 H   0  0  0  0  0  0  0  0  0  0  0  0
   -5.8139   -1.0686   -0.9687 H   0  0  0  0  0  0  0  0  0  0  0  0
   -4.3194   -1.5065   -1.7681 H   0  0  0  0  0  0  0  0  0  0  0  0
   -4.9009   -2.4846   -0.4035 H   0  0  0  0  0  0  0  0  0  0  0  0
   -5.8156   -0.0543    1.3297 H   0  0  0  0  0  0  0  0  0  0  0  0
   -4.8914   -1.4171    2.0031 H   0  0  0  0  0  0  0  0  0  0  0  0
   -4.3143    0.2557    2.1794 H   0  0  0  0  0  0  0  0  0  0  0  0
   -1.5113    1.8931   -2.4509 H   0  0  0  0  0  0  0  0  0  0  0  0
   -3.1294    2.5778   -2.1757 H   0  0  0  0  0  0  0  0  0  0  0  0
   -2.9768    0.9816   -2.8807 H   0  0  0  0  0  0  0  0  0  0  0  0
   -2.1472    1.6762    1.3043 H   0  0  0  0  0  0  0  0  0  0  0  0
   -1.0459    2.3695    0.0886 H   0  0  0  0  0  0  0  0  0  0  0  0
   -2.7077    2.9608    0.2608 H   0  0  0  0  0  0  0  0  0  0  0  0
  1  2  1  0
  2  3  2  0
  3  4  1  0
  4  5  2  0
  4  6  1  0
  6  7  1  0
  7  8  2  0
  8  9  1  0
  9 10  1  0
 10 11  1  0
 11 12  1  0
 12 13  1  0
 13 14  1  0
 13 15  1  0
 13 16  1  0
 16 17  1  0
 17 18  1  0
 17 19  1  0
  8 20  1  0
 20 21  1  0
 21 22  2  0
 22  2  1  0
 21  6  1  0
 17 11  1  0
  1 23  1  0
  1 24  1  0
  1 25  1  0
  3 26  1  0
  9 27  1  0
  9 28  1  0
 10 29  1  0
 11 30  1  0
 12 31  1  0
 12 32  1  0
 14 33  1  0
 14 34  1  0
 14 35  1  0
 15 36  1  0
 15 37  1  0
 15 38  1  0
 18 39  1  0
 18 40  1  0
 18 41  1  0
 19 42  1  0
 19 43  1  0
 19 44  1  0
M  END
>  <Unnamed: 0>  (201) 
1290

>  <ID>  (201) 
TRAIN_1290

>  <Canonical_Smiles>  (201) 
CC1=CC(=O)N2N=C(CNC3CC(C)(C)OC3(C)C)SC2=N1

>  <Inhibition>  (201) 
0.5

>  <TDC_conf_true_inhibitor>  (201) 
0

>  <TDC_conf_non_inhibitor>  (201) 
1

>  <split>  (201) 
1

$$$$
201
     RDKit          3D

 31 32  0  0  0  0  0  0  0  0999 V2000
   -0.6881   -0.8976    3.4027 C   0  0  0  0  0  0  0  0  0  0  0  0
   -0.9444   -0.0305    2.2085 C   0  0  0  0  0  0  0  0  0  0  0  0
    0.0788    0.1747    1.3648 N   0  0  0  0  0  0  0  0  0  0  0  0
   -0.1134    0.9582    0.2789 C   0  0  0  0  0  0  0  0  0  0  0  0
    1.2627    1.2477   -0.7986 S   0  0  0  0  0  0  0  0  0  0  0  0
    2.3203   -0.1986   -0.4178 C   0  0  0  0  0  0  0  0  0  0  0  0
    1.7200   -1.5220   -0.9020 C   0  0  0  0  0  0  0  0  0  0  0  0
    1.7807   -1.5994   -2.3340 O   0  0  0  0  0  0  0  0  0  0  0  0
    2.4983   -2.7108   -0.3266 C   0  0  0  0  0  0  0  0  0  0  0  0
    1.9252   -3.9260   -0.8179 O   0  0  0  0  0  0  0  0  0  0  0  0
   -1.3711    1.5375    0.0311 C   0  0  0  0  0  0  0  0  0  0  0  0
   -1.9371    2.4007   -0.9987 C   0  0  0  0  0  0  0  0  0  0  0  0
   -1.2164    2.9441   -2.1913 C   0  0  0  0  0  0  0  0  0  0  0  0
   -3.2709    2.6747   -0.7489 C   0  0  0  0  0  0  0  0  0  0  0  0
   -3.8500    1.9296    0.6673 S   0  0  0  0  0  0  0  0  0  0  0  0
   -2.3342    1.2253    0.9823 C   0  0  0  0  0  0  0  0  0  0  0  0
   -2.1781    0.4565    2.0717 N   0  0  0  0  0  0  0  0  0  0  0  0
   -1.2809   -1.8142    3.3295 H   0  0  0  0  0  0  0  0  0  0  0  0
   -0.9661   -0.3666    4.3181 H   0  0  0  0  0  0  0  0  0  0  0  0
    0.3692   -1.1720    3.4701 H   0  0  0  0  0  0  0  0  0  0  0  0
    2.5228   -0.2186    0.6581 H   0  0  0  0  0  0  0  0  0  0  0  0
    3.2746   -0.0208   -0.9262 H   0  0  0  0  0  0  0  0  0  0  0  0
    0.6656   -1.6273   -0.6261 H   0  0  0  0  0  0  0  0  0  0  0  0
    1.7102   -2.5496   -2.5539 H   0  0  0  0  0  0  0  0  0  0  0  0
    2.4741   -2.7259    0.7674 H   0  0  0  0  0  0  0  0  0  0  0  0
    3.5407   -2.6923   -0.6604 H   0  0  0  0  0  0  0  0  0  0  0  0
    1.0548   -4.0292   -0.3933 H   0  0  0  0  0  0  0  0  0  0  0  0
   -0.3815    3.5801   -1.8819 H   0  0  0  0  0  0  0  0  0  0  0  0
   -0.8438    2.1309   -2.8216 H   0  0  0  0  0  0  0  0  0  0  0  0
   -1.8813    3.5570   -2.8099 H   0  0  0  0  0  0  0  0  0  0  0  0
   -3.9404    3.2843   -1.3416 H   0  0  0  0  0  0  0  0  0  0  0  0
  1  2  1  0
  2  3  2  0
  3  4  1  0
  4  5  1  0
  5  6  1  0
  6  7  1  0
  7  8  1  0
  7  9  1  0
  9 10  1  0
  4 11  2  0
 11 12  1  0
 12 13  1  0
 12 14  2  0
 14 15  1  0
 15 16  1  0
 16 17  2  0
 17  2  1  0
 16 11  1  0
  1 18  1  0
  1 19  1  0
  1 20  1  0
  6 21  1  0
  6 22  1  0
  7 23  1  0
  8 24  1  0
  9 25  1  0
  9 26  1  0
 10 27  1  0
 13 28  1  0
 13 29  1  0
 13 30  1  0
 14 31  1  0
M  END
>  <Unnamed: 0>  (202) 
1303

>  <ID>  (202) 
TRAIN_1303

>  <Canonical_Smiles>  (202) 
Cc1nc(SCC(O)CO)c2c(C)csc2n1

>  <Inhibition>  (202) 
20.3

>  <TDC_conf_true_inhibitor>  (202) 
0

>  <TDC_conf_non_inhibitor>  (202) 
1

>  <split>  (202) 
1

$$$$
202
     RDKit          3D

 34 35  0  0  0  0  0  0  0  0999 V2000
   -0.1829   -3.7367    0.6808 C   0  0  0  0  0  0  0  0  0  0  0  0
   -1.8210   -3.0121    0.9304 S   0  0  0  0  0  0  0  0  0  0  0  0
   -1.4999   -1.3279    0.4655 C   0  0  0  0  0  0  0  0  0  0  0  0
   -2.5379   -0.4858    0.5402 N   0  0  0  0  0  0  0  0  0  0  0  0
   -2.3201    0.8038    0.1957 C   0  0  0  0  0  0  0  0  0  0  0  0
   -3.5394    1.6792    0.2864 C   0  0  0  0  0  0  0  0  0  0  0  0
   -3.2446    3.1649    0.4351 C   0  0  0  0  0  0  0  0  0  0  0  0
   -2.4255    3.6716   -0.7363 C   0  0  0  0  0  0  0  0  0  0  0  0
   -0.7593    2.9525   -0.7412 S   0  0  0  0  0  0  0  0  0  0  0  0
   -1.0865    1.2614   -0.2480 C   0  0  0  0  0  0  0  0  0  0  0  0
   -0.0655    0.2973   -0.2928 C   0  0  0  0  0  0  0  0  0  0  0  0
    1.2416    0.6927   -0.6531 N   0  0  0  0  0  0  0  0  0  0  0  0
    2.2140   -0.3689   -0.9016 C   0  0  0  0  0  0  0  0  0  0  0  0
    2.8972   -0.7881    0.4014 C   0  0  0  0  0  0  0  0  0  0  0  0
    3.8674   -1.9381    0.1789 C   0  0  0  0  0  0  0  0  0  0  0  0
    4.9209   -1.5492   -0.6918 O   0  0  0  0  0  0  0  0  0  0  0  0
   -0.2708   -0.9840    0.0672 N   0  0  0  0  0  0  0  0  0  0  0  0
    0.1324   -3.6407   -0.3621 H   0  0  0  0  0  0  0  0  0  0  0  0
   -0.2250   -4.8013    0.9272 H   0  0  0  0  0  0  0  0  0  0  0  0
    0.5557   -3.2648    1.3348 H   0  0  0  0  0  0  0  0  0  0  0  0
   -4.1454    1.3587    1.1431 H   0  0  0  0  0  0  0  0  0  0  0  0
   -4.1453    1.5108   -0.6129 H   0  0  0  0  0  0  0  0  0  0  0  0
   -2.7324    3.3660    1.3848 H   0  0  0  0  0  0  0  0  0  0  0  0
   -4.1953    3.7105    0.4694 H   0  0  0  0  0  0  0  0  0  0  0  0
   -2.3228    4.7599   -0.6791 H   0  0  0  0  0  0  0  0  0  0  0  0
   -2.9165    3.4375   -1.6871 H   0  0  0  0  0  0  0  0  0  0  0  0
    1.1770    1.3566   -1.4233 H   0  0  0  0  0  0  0  0  0  0  0  0
    1.7621   -1.2238   -1.4201 H   0  0  0  0  0  0  0  0  0  0  0  0
    2.9726    0.0331   -1.5841 H   0  0  0  0  0  0  0  0  0  0  0  0
    2.1574   -1.0889    1.1510 H   0  0  0  0  0  0  0  0  0  0  0  0
    3.4358    0.0754    0.8115 H   0  0  0  0  0  0  0  0  0  0  0  0
    3.3573   -2.7991   -0.2645 H   0  0  0  0  0  0  0  0  0  0  0  0
    4.3072   -2.2601    1.1283 H   0  0  0  0  0  0  0  0  0  0  0  0
    5.4374   -0.8626   -0.2340 H   0  0  0  0  0  0  0  0  0  0  0  0
  1  2  1  0
  2  3  1  0
  3  4  2  0
  4  5  1  0
  5  6  1  0
  6  7  1  0
  7  8  1  0
  8  9  1  0
  9 10  1  0
 10 11  1  0
 11 12  1  0
 12 13  1  0
 13 14  1  0
 14 15  1  0
 15 16  1  0
 11 17  2  0
 17  3  1  0
 10  5  2  0
  1 18  1  0
  1 19  1  0
  1 20  1  0
  6 21  1  0
  6 22  1  0
  7 23  1  0
  7 24  1  0
  8 25  1  0
  8 26  1  0
 12 27  1  0
 13 28  1  0
 13 29  1  0
 14 30  1  0
 14 31  1  0
 15 32  1  0
 15 33  1  0
 16 34  1  0
M  END
>  <Unnamed: 0>  (203) 
1306

>  <ID>  (203) 
TRAIN_1306

>  <Canonical_Smiles>  (203) 
CSc1nc2CCCSc2c(NCCCO)n1

>  <Inhibition>  (203) 
11.2

>  <TDC_conf_true_inhibitor>  (203) 
0

>  <TDC_conf_non_inhibitor>  (203) 
1

>  <split>  (203) 
1

$$$$
203
     RDKit          3D

 39 40  0  0  0  0  0  0  0  0999 V2000
   -0.2728   -3.3525   -2.3179 C   0  0  0  0  0  0  0  0  0  0  0  0
   -1.3585   -2.9578   -1.3142 C   0  0  0  0  0  0  0  0  0  0  0  0
   -2.6759   -3.6447   -1.6816 C   0  0  0  0  0  0  0  0  0  0  0  0
   -0.8949   -3.3117    0.1105 C   0  0  0  0  0  0  0  0  0  0  0  0
   -1.7106   -2.7377    1.1634 N   0  0  0  0  0  0  0  0  0  0  0  0
   -2.7763   -3.4220    1.6240 N   0  0  0  0  0  0  0  0  0  0  0  0
   -3.2378   -2.6003    2.5666 C   0  0  0  0  0  0  0  0  0  0  0  0
   -2.5112   -1.4625    2.7487 N   0  0  0  0  0  0  0  0  0  0  0  0
   -1.5419   -1.5657    1.8579 C   0  0  0  0  0  0  0  0  0  0  0  0
   -0.4253   -0.6004    1.6608 C   0  0  0  0  0  0  0  0  0  0  0  0
   -0.8206    0.5902    0.3391 S   0  0  0  0  0  0  0  0  0  0  0  0
    0.5940    1.6751    0.4577 C   0  0  0  0  0  0  0  0  0  0  0  0
    1.6974    1.1560    1.0337 N   0  0  0  0  0  0  0  0  0  0  0  0
    2.8322    1.9045    1.1650 N   0  0  0  0  0  0  0  0  0  0  0  0
    2.8719    3.1738    0.7110 C   0  0  0  0  0  0  0  0  0  0  0  0
    4.1641    3.9029    0.9280 C   0  0  0  0  0  0  0  0  0  0  0  0
    1.7717    3.7554    0.0776 C   0  0  0  0  0  0  0  0  0  0  0  0
    1.8457    5.1792   -0.4112 C   0  0  0  0  0  0  0  0  0  0  0  0
    0.5999    2.9775   -0.0384 C   0  0  0  0  0  0  0  0  0  0  0  0
   -0.5751    3.5168   -0.6581 C   0  0  0  0  0  0  0  0  0  0  0  0
   -1.5042    3.9869   -1.1724 N   0  0  0  0  0  0  0  0  0  0  0  0
    0.6593   -2.8167   -2.1106 H   0  0  0  0  0  0  0  0  0  0  0  0
   -0.5763   -3.1072   -3.3405 H   0  0  0  0  0  0  0  0  0  0  0  0
   -0.0630   -4.4255   -2.2729 H   0  0  0  0  0  0  0  0  0  0  0  0
   -1.5123   -1.8764   -1.3942 H   0  0  0  0  0  0  0  0  0  0  0  0
   -2.5972   -4.7330   -1.5854 H   0  0  0  0  0  0  0  0  0  0  0  0
   -3.4956   -3.3017   -1.0432 H   0  0  0  0  0  0  0  0  0  0  0  0
   -2.9551   -3.4182   -2.7172 H   0  0  0  0  0  0  0  0  0  0  0  0
   -0.8871   -4.3995    0.2584 H   0  0  0  0  0  0  0  0  0  0  0  0
    0.1331   -2.9714    0.2742 H   0  0  0  0  0  0  0  0  0  0  0  0
   -4.1220   -2.8417    3.1416 H   0  0  0  0  0  0  0  0  0  0  0  0
   -0.2702   -0.0508    2.5963 H   0  0  0  0  0  0  0  0  0  0  0  0
    0.5051   -1.1279    1.4327 H   0  0  0  0  0  0  0  0  0  0  0  0
    4.8690    3.2858    1.4955 H   0  0  0  0  0  0  0  0  0  0  0  0
    4.6312    4.1467   -0.0310 H   0  0  0  0  0  0  0  0  0  0  0  0
    3.9946    4.8223    1.4964 H   0  0  0  0  0  0  0  0  0  0  0  0
    1.7783    5.8670    0.4375 H   0  0  0  0  0  0  0  0  0  0  0  0
    2.7863    5.3566   -0.9435 H   0  0  0  0  0  0  0  0  0  0  0  0
    1.0504    5.4288   -1.1185 H   0  0  0  0  0  0  0  0  0  0  0  0
  1  2  1  0
  2  3  1  0
  2  4  1  0
  4  5  1  0
  5  6  1  0
  6  7  2  0
  7  8  1  0
  8  9  2  0
  9 10  1  0
 10 11  1  0
 11 12  1  0
 12 13  2  0
 13 14  1  0
 14 15  2  0
 15 16  1  0
 15 17  1  0
 17 18  1  0
 17 19  2  0
 19 20  1  0
 20 21  3  0
  9  5  1  0
 19 12  1  0
  1 22  1  0
  1 23  1  0
  1 24  1  0
  2 25  1  0
  3 26  1  0
  3 27  1  0
  3 28  1  0
  4 29  1  0
  4 30  1  0
  7 31  1  0
 10 32  1  0
 10 33  1  0
 16 34  1  0
 16 35  1  0
 16 36  1  0
 18 37  1  0
 18 38  1  0
 18 39  1  0
M  END
>  <Unnamed: 0>  (204) 
1319

>  <ID>  (204) 
TRAIN_1319

>  <Canonical_Smiles>  (204) 
CC(C)Cn1ncnc1CSc2nnc(C)c(C)c2C#N

>  <Inhibition>  (204) 
2.81

>  <TDC_conf_true_inhibitor>  (204) 
0

>  <TDC_conf_non_inhibitor>  (204) 
1

>  <split>  (204) 
1

$$$$
204
     RDKit          3D

 39 40  0  0  0  0  0  0  0  0999 V2000
    4.8002    2.8101    0.7698 C   0  0  0  0  0  0  0  0  0  0  0  0
    3.6907    1.9162    0.7712 O   0  0  0  0  0  0  0  0  0  0  0  0
    4.0183    0.6231    0.4050 C   0  0  0  0  0  0  0  0  0  0  0  0
    5.2990    0.3491    0.1006 N   0  0  0  0  0  0  0  0  0  0  0  0
    5.5498   -0.9211   -0.2267 C   0  0  0  0  0  0  0  0  0  0  0  0
    4.6565   -1.9131   -0.2691 N   0  0  0  0  0  0  0  0  0  0  0  0
    3.3884   -1.5964    0.0266 C   0  0  0  0  0  0  0  0  0  0  0  0
    2.4685   -2.6597    0.0225 N   0  0  0  0  0  0  0  0  0  0  0  0
    2.9942   -0.3111    0.3807 C   0  0  0  0  0  0  0  0  0  0  0  0
    1.5808    0.0367    0.7564 C   0  0  0  0  0  0  0  0  0  0  0  0
    0.6117   -0.4033   -0.2631 N   0  0  0  0  0  0  0  0  0  0  0  0
   -0.7627   -0.1209    0.1727 C   0  0  0  0  0  0  0  0  0  0  0  0
   -1.7650   -0.5797   -0.8975 C   0  0  0  0  0  0  0  0  0  0  0  0
   -3.1984   -0.3392   -0.4913 C   0  0  0  0  0  0  0  0  0  0  0  0
   -4.0554   -1.3390   -0.2135 C   0  0  0  0  0  0  0  0  0  0  0  0
   -5.4777   -1.1092    0.2140 C   0  0  0  0  0  0  0  0  0  0  0  0
   -5.7247    0.2514    0.5813 O   0  0  0  0  0  0  0  0  0  0  0  0
   -5.2106    1.1608   -0.3919 C   0  0  0  0  0  0  0  0  0  0  0  0
   -3.6824    1.0892   -0.4201 C   0  0  0  0  0  0  0  0  0  0  0  0
    5.2305    2.9070   -0.2330 H   0  0  0  0  0  0  0  0  0  0  0  0
    4.4327    3.7961    1.0701 H   0  0  0  0  0  0  0  0  0  0  0  0
    5.5587    2.5022    1.4978 H   0  0  0  0  0  0  0  0  0  0  0  0
    6.5737   -1.1746   -0.4771 H   0  0  0  0  0  0  0  0  0  0  0  0
    2.1710   -2.8439    0.9751 H   0  0  0  0  0  0  0  0  0  0  0  0
    1.6317   -2.3321   -0.4698 H   0  0  0  0  0  0  0  0  0  0  0  0
    1.3636   -0.4467    1.7175 H   0  0  0  0  0  0  0  0  0  0  0  0
    1.4626    1.1153    0.9074 H   0  0  0  0  0  0  0  0  0  0  0  0
    0.7977    0.1167   -1.1236 H   0  0  0  0  0  0  0  0  0  0  0  0
   -0.9694   -0.6493    1.1114 H   0  0  0  0  0  0  0  0  0  0  0  0
   -0.8798    0.9538    0.3566 H   0  0  0  0  0  0  0  0  0  0  0  0
   -1.6076   -1.6471   -1.1023 H   0  0  0  0  0  0  0  0  0  0  0  0
   -1.5729   -0.0569   -1.8434 H   0  0  0  0  0  0  0  0  0  0  0  0
   -3.7366   -2.3756   -0.2833 H   0  0  0  0  0  0  0  0  0  0  0  0
   -5.7023   -1.7266    1.0894 H   0  0  0  0  0  0  0  0  0  0  0  0
   -6.1664   -1.3975   -0.5877 H   0  0  0  0  0  0  0  0  0  0  0  0
   -5.6447    0.9351   -1.3740 H   0  0  0  0  0  0  0  0  0  0  0  0
   -5.5298    2.1706   -0.1146 H   0  0  0  0  0  0  0  0  0  0  0  0
   -3.2813    1.5423    0.4943 H   0  0  0  0  0  0  0  0  0  0  0  0
   -3.3127    1.6673   -1.2740 H   0  0  0  0  0  0  0  0  0  0  0  0
  1  2  1  0
  2  3  1  0
  3  4  2  0
  4  5  1  0
  5  6  2  0
  6  7  1  0
  7  8  1  0
  7  9  2  0
  9 10  1  0
 10 11  1  0
 11 12  1  0
 12 13  1  0
 13 14  1  0
 14 15  2  0
 15 16  1  0
 16 17  1  0
 17 18  1  0
 18 19  1  0
  9  3  1  0
 19 14  1  0
  1 20  1  0
  1 21  1  0
  1 22  1  0
  5 23  1  0
  8 24  1  0
  8 25  1  0
 10 26  1  0
 10 27  1  0
 11 28  1  0
 12 29  1  0
 12 30  1  0
 13 31  1  0
 13 32  1  0
 15 33  1  0
 16 34  1  0
 16 35  1  0
 18 36  1  0
 18 37  1  0
 19 38  1  0
 19 39  1  0
M  END
>  <Unnamed: 0>  (205) 
1333

>  <ID>  (205) 
TRAIN_1333

>  <Canonical_Smiles>  (205) 
COc1ncnc(N)c1CNCCC2=CCOCC2

>  <Inhibition>  (205) 
8.74

>  <TDC_conf_true_inhibitor>  (205) 
0

>  <TDC_conf_non_inhibitor>  (205) 
1

>  <split>  (205) 
1

$$$$
205
     RDKit          3D

 42 44  0  0  0  0  0  0  0  0999 V2000
   -4.8226    2.9464    0.1367 C   0  0  0  0  0  0  0  0  0  0  0  0
   -3.6823    1.9715    0.1742 C   0  0  0  0  0  0  0  0  0  0  0  0
   -3.8236    0.7058    0.5995 C   0  0  0  0  0  0  0  0  0  0  0  0
   -2.7029   -0.2099    0.6337 C   0  0  0  0  0  0  0  0  0  0  0  0
   -2.7131   -1.4952    1.0525 C   0  0  0  0  0  0  0  0  0  0  0  0
   -3.9256   -2.2420    1.5414 C   0  0  0  0  0  0  0  0  0  0  0  0
   -1.5398   -2.2216    1.0344 N   0  0  0  0  0  0  0  0  0  0  0  0
   -0.3537   -1.7448    0.5597 C   0  0  0  0  0  0  0  0  0  0  0  0
    0.6671   -2.5401    0.4978 N   0  0  0  0  0  0  0  0  0  0  0  0
    1.8290   -2.0542   -0.0248 C   0  0  0  0  0  0  0  0  0  0  0  0
    2.2002   -2.5713   -1.1493 N   0  0  0  0  0  0  0  0  0  0  0  0
    3.3732   -2.1376   -1.7192 C   0  0  0  0  0  0  0  0  0  0  0  0
    3.8131   -2.6253   -2.7582 O   0  0  0  0  0  0  0  0  0  0  0  0
    4.1408   -1.0106   -1.0643 C   0  0  0  0  0  0  0  0  0  0  0  0
    3.6782   -0.5399    0.1101 C   0  0  0  0  0  0  0  0  0  0  0  0
    4.2812    0.5916    0.8947 C   0  0  0  0  0  0  0  0  0  0  0  0
    2.5543   -1.1160    0.6459 N   0  0  0  0  0  0  0  0  0  0  0  0
    5.3607   -0.5608   -1.8076 C   0  0  0  0  0  0  0  0  0  0  0  0
   -0.2465   -0.4354    0.1714 N   0  0  0  0  0  0  0  0  0  0  0  0
   -1.3370    0.2756    0.1845 C   0  0  0  0  0  0  0  0  0  0  0  0
   -1.2777    1.7067   -0.2756 C   0  0  0  0  0  0  0  0  0  0  0  0
   -2.3909    2.4592   -0.2688 C   0  0  0  0  0  0  0  0  0  0  0  0
    0.0504    2.2215   -0.7425 C   0  0  0  0  0  0  0  0  0  0  0  0
   -4.6045    3.8177    0.7659 H   0  0  0  0  0  0  0  0  0  0  0  0
   -5.7559    2.5015    0.5013 H   0  0  0  0  0  0  0  0  0  0  0  0
   -4.9975    3.2950   -0.8869 H   0  0  0  0  0  0  0  0  0  0  0  0
   -4.7957    0.3606    0.9334 H   0  0  0  0  0  0  0  0  0  0  0  0
   -4.8679   -1.7298    1.3345 H   0  0  0  0  0  0  0  0  0  0  0  0
   -3.8553   -2.3960    2.6245 H   0  0  0  0  0  0  0  0  0  0  0  0
   -3.9835   -3.2280    1.0641 H   0  0  0  0  0  0  0  0  0  0  0  0
   -1.5604   -3.2077    1.2609 H   0  0  0  0  0  0  0  0  0  0  0  0
    3.4971    1.2874    1.2161 H   0  0  0  0  0  0  0  0  0  0  0  0
    5.0005    1.1818    0.3226 H   0  0  0  0  0  0  0  0  0  0  0  0
    4.7844    0.2079    1.7883 H   0  0  0  0  0  0  0  0  0  0  0  0
    2.1002   -0.6724    1.4333 H   0  0  0  0  0  0  0  0  0  0  0  0
    5.9425    0.1912   -1.2685 H   0  0  0  0  0  0  0  0  0  0  0  0
    6.0337   -1.4082   -1.9843 H   0  0  0  0  0  0  0  0  0  0  0  0
    5.0802   -0.1319   -2.7763 H   0  0  0  0  0  0  0  0  0  0  0  0
   -2.3460    3.4902   -0.6135 H   0  0  0  0  0  0  0  0  0  0  0  0
   -0.0051    3.2704   -1.0535 H   0  0  0  0  0  0  0  0  0  0  0  0
    0.4086    1.6414   -1.5997 H   0  0  0  0  0  0  0  0  0  0  0  0
    0.7925    2.1555    0.0599 H   0  0  0  0  0  0  0  0  0  0  0  0
  1  2  1  0
  2  3  2  0
  3  4  1  0
  4  5  2  0
  5  6  1  0
  5  7  1  0
  7  8  1  0
  8  9  2  0
  9 10  1  0
 10 11  2  0
 11 12  1  0
 12 13  2  0
 12 14  1  0
 14 15  2  0
 15 16  1  0
 15 17  1  0
 14 18  1  0
  8 19  1  0
 19 20  2  0
 20 21  1  0
 21 22  2  0
 21 23  1  0
 22  2  1  0
 20  4  1  0
 17 10  1  0
  1 24  1  0
  1 25  1  0
  1 26  1  0
  3 27  1  0
  6 28  1  0
  6 29  1  0
  6 30  1  0
  7 31  1  0
 16 32  1  0
 16 33  1  0
 16 34  1  0
 17 35  1  0
 18 36  1  0
 18 37  1  0
 18 38  1  0
 22 39  1  0
 23 40  1  0
 23 41  1  0
 23 42  1  0
M  END
>  <Unnamed: 0>  (206) 
1344

>  <ID>  (206) 
TRAIN_1344

>  <Canonical_Smiles>  (206) 
CC1=CC2=C(C)N\C(=N\C3=NC(=O)C(=C(C)N3)C)\N=C2C(=C1)C

>  <Inhibition>  (206) 
37.2

>  <TDC_conf_true_inhibitor>  (206) 
1

>  <TDC_conf_non_inhibitor>  (206) 
0

>  <split>  (206) 
1

$$$$
206
     RDKit          3D

 32 35  0  0  0  0  0  0  0  0999 V2000
   -0.2997    1.0016    3.5259 N   0  0  0  0  0  0  0  0  0  0  0  0
   -0.9182    0.7919    2.5663 C   0  0  0  0  0  0  0  0  0  0  0  0
   -1.6797    0.5206    1.3846 C   0  0  0  0  0  0  0  0  0  0  0  0
   -1.2919   -0.3074    0.2851 C   0  0  0  0  0  0  0  0  0  0  0  0
   -0.0128   -1.0709    0.1350 C   0  0  0  0  0  0  0  0  0  0  0  0
    1.2857    0.0139   -0.5364 S   0  0  0  0  0  0  0  0  0  0  0  0
    2.6638   -1.0955   -0.5035 C   0  0  0  0  0  0  0  0  0  0  0  0
    2.4648   -2.4158   -0.3092 N   0  0  0  0  0  0  0  0  0  0  0  0
    3.5406   -3.2168   -0.3030 C   0  0  0  0  0  0  0  0  0  0  0  0
    4.8175   -2.8665   -0.4723 N   0  0  0  0  0  0  0  0  0  0  0  0
    4.9684   -1.5452   -0.6642 C   0  0  0  0  0  0  0  0  0  0  0  0
    6.5185   -0.8765   -0.9033 S   0  0  0  0  0  0  0  0  0  0  0  0
    5.8802    0.7020   -1.0536 C   0  0  0  0  0  0  0  0  0  0  0  0
    4.5084    0.7150   -0.9244 C   0  0  0  0  0  0  0  0  0  0  0  0
    3.9588   -0.5949   -0.6957 C   0  0  0  0  0  0  0  0  0  0  0  0
   -2.3407   -0.2690   -0.6203 C   0  0  0  0  0  0  0  0  0  0  0  0
   -3.3355    0.5418   -0.1260 N   0  0  0  0  0  0  0  0  0  0  0  0
   -4.5594    0.8599   -0.7129 C   0  0  0  0  0  0  0  0  0  0  0  0
   -5.4089    1.6759   -0.0675 C   0  0  0  0  0  0  0  0  0  0  0  0
   -5.0239    2.2051    1.2303 C   0  0  0  0  0  0  0  0  0  0  0  0
   -3.8409    1.8975    1.7967 C   0  0  0  0  0  0  0  0  0  0  0  0
   -2.9351    1.0298    1.1127 C   0  0  0  0  0  0  0  0  0  0  0  0
    0.2986   -1.4684    1.1072 H   0  0  0  0  0  0  0  0  0  0  0  0
   -0.1683   -1.9176   -0.5430 H   0  0  0  0  0  0  0  0  0  0  0  0
    3.3511   -4.2740   -0.1421 H   0  0  0  0  0  0  0  0  0  0  0  0
    6.5387    1.5424   -1.2282 H   0  0  0  0  0  0  0  0  0  0  0  0
    3.9200    1.6230   -0.9883 H   0  0  0  0  0  0  0  0  0  0  0  0
   -2.4564   -0.7504   -1.5827 H   0  0  0  0  0  0  0  0  0  0  0  0
   -4.7767    0.4284   -1.6815 H   0  0  0  0  0  0  0  0  0  0  0  0
   -6.3710    1.9516   -0.4850 H   0  0  0  0  0  0  0  0  0  0  0  0
   -5.7244    2.8637    1.7355 H   0  0  0  0  0  0  0  0  0  0  0  0
   -3.5715    2.3045    2.7672 H   0  0  0  0  0  0  0  0  0  0  0  0
  1  2  3  0
  2  3  1  0
  3  4  1  0
  4  5  1  0
  5  6  1  0
  6  7  1  0
  7  8  2  0
  8  9  1  0
  9 10  2  0
 10 11  1  0
 11 12  1  0
 12 13  1  0
 13 14  2  0
 14 15  1  0
  4 16  2  0
 16 17  1  0
 17 18  1  0
 18 19  2  0
 19 20  1  0
 20 21  2  0
 21 22  1  0
 22  3  2  0
 15  7  1  0
 15 11  2  0
 22 17  1  0
  5 23  1  0
  5 24  1  0
  9 25  1  0
 13 26  1  0
 14 27  1  0
 16 28  1  0
 18 29  1  0
 19 30  1  0
 20 31  1  0
 21 32  1  0
M  END
>  <Unnamed: 0>  (207) 
1346

>  <ID>  (207) 
TRAIN_1346

>  <Canonical_Smiles>  (207) 
N#Cc1c(CSc2ncnc3sccc23)cn4ccccc14

>  <Inhibition>  (207) 
36.8

>  <TDC_conf_true_inhibitor>  (207) 
0

>  <TDC_conf_non_inhibitor>  (207) 
1

>  <split>  (207) 
1

$$$$
207
     RDKit          3D

 47 48  0  0  0  0  0  0  0  0999 V2000
    5.1613   -2.5402   -1.3578 C   0  0  0  0  0  0  0  0  0  0  0  0
    4.0743   -1.5235   -1.0149 C   0  0  0  0  0  0  0  0  0  0  0  0
    3.8638   -0.5591   -2.1806 C   0  0  0  0  0  0  0  0  0  0  0  0
    4.4206   -0.7608    0.2630 C   0  0  0  0  0  0  0  0  0  0  0  0
    5.4941   -0.8725    0.8455 O   0  0  0  0  0  0  0  0  0  0  0  0
    3.4104    0.0692    0.6984 N   0  0  0  0  0  0  0  0  0  0  0  0
    3.4827    0.7419    1.9870 C   0  0  0  0  0  0  0  0  0  0  0  0
    2.6302    2.0135    2.0033 C   0  0  0  0  0  0  0  0  0  0  0  0
    1.2611    1.7709    1.5848 N   0  0  0  0  0  0  0  0  0  0  0  0
    0.3368    1.1626    2.3999 C   0  0  0  0  0  0  0  0  0  0  0  0
    0.5838    0.8495    3.5601 O   0  0  0  0  0  0  0  0  0  0  0  0
   -1.0070    0.8822    1.8086 C   0  0  0  0  0  0  0  0  0  0  0  0
   -2.0203    0.4340    2.6898 C   0  0  0  0  0  0  0  0  0  0  0  0
   -3.3135    0.1466    2.2333 C   0  0  0  0  0  0  0  0  0  0  0  0
   -3.5788    0.2999    0.8860 C   0  0  0  0  0  0  0  0  0  0  0  0
   -4.8469    0.1138    0.1454 C   0  0  0  0  0  0  0  0  0  0  0  0
   -4.3347    0.2525   -1.3087 C   0  0  0  0  0  0  0  0  0  0  0  0
   -4.2300   -1.1114   -2.0026 C   0  0  0  0  0  0  0  0  0  0  0  0
   -5.2315    1.1852   -2.1242 C   0  0  0  0  0  0  0  0  0  0  0  0
   -2.9979    0.8384   -1.2855 O   0  0  0  0  0  0  0  0  0  0  0  0
   -2.5922    0.7307    0.0209 C   0  0  0  0  0  0  0  0  0  0  0  0
   -1.3094    1.0291    0.4496 C   0  0  0  0  0  0  0  0  0  0  0  0
   -0.3925    1.4435   -0.4795 O   0  0  0  0  0  0  0  0  0  0  0  0
    5.3140   -3.2416   -0.5302 H   0  0  0  0  0  0  0  0  0  0  0  0
    4.8861   -3.1213   -2.2443 H   0  0  0  0  0  0  0  0  0  0  0  0
    6.1200   -2.0487   -1.5572 H   0  0  0  0  0  0  0  0  0  0  0  0
    3.1420   -2.0720   -0.8295 H   0  0  0  0  0  0  0  0  0  0  0  0
    3.0277    0.1222   -1.9903 H   0  0  0  0  0  0  0  0  0  0  0  0
    3.6422   -1.1046   -3.1039 H   0  0  0  0  0  0  0  0  0  0  0  0
    4.7553    0.0548   -2.3508 H   0  0  0  0  0  0  0  0  0  0  0  0
    2.4765   -0.0979    0.3453 H   0  0  0  0  0  0  0  0  0  0  0  0
    3.1301    0.0251    2.7366 H   0  0  0  0  0  0  0  0  0  0  0  0
    4.5242    0.9864    2.2209 H   0  0  0  0  0  0  0  0  0  0  0  0
    3.0428    2.7546    1.3105 H   0  0  0  0  0  0  0  0  0  0  0  0
    2.6234    2.4456    3.0095 H   0  0  0  0  0  0  0  0  0  0  0  0
    1.0015    1.9474    0.6171 H   0  0  0  0  0  0  0  0  0  0  0  0
   -1.7980    0.3150    3.7502 H   0  0  0  0  0  0  0  0  0  0  0  0
   -4.0809   -0.1824    2.9277 H   0  0  0  0  0  0  0  0  0  0  0  0
   -5.3091   -0.8589    0.3392 H   0  0  0  0  0  0  0  0  0  0  0  0
   -5.5512    0.9089    0.4133 H   0  0  0  0  0  0  0  0  0  0  0  0
   -5.2085   -1.5952   -2.0856 H   0  0  0  0  0  0  0  0  0  0  0  0
   -3.5576   -1.7819   -1.4554 H   0  0  0  0  0  0  0  0  0  0  0  0
   -3.8077   -1.0042   -3.0083 H   0  0  0  0  0  0  0  0  0  0  0  0
   -4.8434    1.3088   -3.1416 H   0  0  0  0  0  0  0  0  0  0  0  0
   -6.2564    0.8054   -2.1854 H   0  0  0  0  0  0  0  0  0  0  0  0
   -5.2564    2.1871   -1.6807 H   0  0  0  0  0  0  0  0  0  0  0  0
   -0.8811    1.4743   -1.3287 H   0  0  0  0  0  0  0  0  0  0  0  0
  1  2  1  0
  2  3  1  0
  2  4  1  0
  4  5  2  0
  4  6  1  0
  6  7  1  0
  7  8  1  0
  8  9  1  0
  9 10  1  0
 10 11  2  0
 10 12  1  0
 12 13  2  0
 13 14  1  0
 14 15  2  0
 15 16  1  0
 16 17  1  0
 17 18  1  0
 17 19  1  0
 17 20  1  0
 20 21  1  0
 21 22  2  0
 22 23  1  0
 22 12  1  0
 21 15  1  0
  1 24  1  0
  1 25  1  0
  1 26  1  0
  2 27  1  0
  3 28  1  0
  3 29  1  0
  3 30  1  0
  6 31  1  0
  7 32  1  0
  7 33  1  0
  8 34  1  0
  8 35  1  0
  9 36  1  0
 13 37  1  0
 14 38  1  0
 16 39  1  0
 16 40  1  0
 18 41  1  0
 18 42  1  0
 18 43  1  0
 19 44  1  0
 19 45  1  0
 19 46  1  0
 23 47  1  0
M  END
>  <Unnamed: 0>  (208) 
1347

>  <ID>  (208) 
TRAIN_1347

>  <Canonical_Smiles>  (208) 
CC(C)C(=O)NCCNC(=O)c1ccc2CC(C)(C)Oc2c1O

>  <Inhibition>  (208) 
15.9

>  <TDC_conf_true_inhibitor>  (208) 
0

>  <TDC_conf_non_inhibitor>  (208) 
1

>  <split>  (208) 
1

$$$$
208
     RDKit          3D

 53 55  0  0  0  0  0  0  0  0999 V2000
    2.3808   -2.9655    1.2080 C   0  0  0  0  0  0  0  0  0  0  0  0
    2.3403   -1.4692    1.0216 C   0  0  0  0  0  0  0  0  0  0  0  0
    3.1241   -0.9458   -0.0262 C   0  0  0  0  0  0  0  0  0  0  0  0
    3.1898    0.4264   -0.3125 C   0  0  0  0  0  0  0  0  0  0  0  0
    2.4392    1.2778    0.5049 C   0  0  0  0  0  0  0  0  0  0  0  0
    1.6261    0.7938    1.5498 C   0  0  0  0  0  0  0  0  0  0  0  0
    0.8991    1.8146    2.3935 C   0  0  0  0  0  0  0  0  0  0  0  0
    1.5460   -0.5994    1.8014 C   0  0  0  0  0  0  0  0  0  0  0  0
    0.6307   -1.1232    2.8863 C   0  0  0  0  0  0  0  0  0  0  0  0
   -0.8878   -1.8194    2.2289 S   0  0  0  0  0  6  0  0  0  0  0  0
   -0.6186   -3.1926    1.8306 O   0  0  0  0  0  0  0  0  0  0  0  0
   -1.9148   -1.5621    3.2261 O   0  0  0  0  0  0  0  0  0  0  0  0
   -1.2821   -0.8805    0.7514 C   0  0  0  0  0  0  0  0  0  0  0  0
   -2.6281   -1.2074    0.1944 C   0  0  0  0  0  0  0  0  0  0  0  0
   -3.1220   -2.4505   -0.1481 C   0  0  0  0  0  0  0  0  0  0  0  0
   -4.7100   -2.3092   -0.7675 S   0  0  0  0  0  0  0  0  0  0  0  0
   -4.6455   -0.5925   -0.5650 C   0  0  0  0  0  0  0  0  0  0  0  0
   -3.4947   -0.1557   -0.0727 N   0  0  0  0  0  0  0  0  0  0  0  0
   -5.8040    0.2513   -0.9318 C   0  0  0  0  0  0  0  0  0  0  0  0
   -5.6942    1.5744   -0.6864 N   0  0  0  0  0  0  0  0  0  0  0  0
   -6.7531    2.3342   -1.0189 C   0  0  0  0  0  0  0  0  0  0  0  0
   -7.9008    1.8313   -1.5832 C   0  0  0  0  0  0  0  0  0  0  0  0
   -7.9120    0.4731   -1.7976 C   0  0  0  0  0  0  0  0  0  0  0  0
   -6.8851   -0.3386   -1.4853 N   0  0  0  0  0  0  0  0  0  0  0  0
    4.0751    0.9373   -1.4633 C   0  0  0  0  0  0  0  0  0  0  0  0
    3.9983    2.4659   -1.6820 C   0  0  0  0  0  0  0  0  0  0  0  0
    5.5505    0.5904   -1.1695 C   0  0  0  0  0  0  0  0  0  0  0  0
    3.6495    0.2694   -2.7895 C   0  0  0  0  0  0  0  0  0  0  0  0
    2.1578   -3.2667    2.2338 H   0  0  0  0  0  0  0  0  0  0  0  0
    3.3857   -3.3499    0.9936 H   0  0  0  0  0  0  0  0  0  0  0  0
    1.6752   -3.4466    0.5237 H   0  0  0  0  0  0  0  0  0  0  0  0
    3.7075   -1.6432   -0.6272 H   0  0  0  0  0  0  0  0  0  0  0  0
    2.4737    2.3535    0.3464 H   0  0  0  0  0  0  0  0  0  0  0  0
    1.3144    1.8262    3.4069 H   0  0  0  0  0  0  0  0  0  0  0  0
    1.0001    2.8253    1.9832 H   0  0  0  0  0  0  0  0  0  0  0  0
   -0.1718    1.5984    2.4392 H   0  0  0  0  0  0  0  0  0  0  0  0
    1.1194   -1.8893    3.4949 H   0  0  0  0  0  0  0  0  0  0  0  0
    0.3365   -0.3372    3.5868 H   0  0  0  0  0  0  0  0  0  0  0  0
   -0.5177   -1.0916   -0.0014 H   0  0  0  0  0  0  0  0  0  0  0  0
   -1.2503    0.1771    1.0216 H   0  0  0  0  0  0  0  0  0  0  0  0
   -2.6441   -3.4171   -0.0559 H   0  0  0  0  0  0  0  0  0  0  0  0
   -6.6463    3.3947   -0.8094 H   0  0  0  0  0  0  0  0  0  0  0  0
   -8.7394    2.4627   -1.8415 H   0  0  0  0  0  0  0  0  0  0  0  0
   -8.7729   -0.0177   -2.2412 H   0  0  0  0  0  0  0  0  0  0  0  0
    4.6342    2.7772   -2.5199 H   0  0  0  0  0  0  0  0  0  0  0  0
    2.9764    2.7890   -1.9139 H   0  0  0  0  0  0  0  0  0  0  0  0
    4.3402    3.0179   -0.7986 H   0  0  0  0  0  0  0  0  0  0  0  0
    5.7165   -0.4906   -1.0996 H   0  0  0  0  0  0  0  0  0  0  0  0
    6.2103    0.9669   -1.9605 H   0  0  0  0  0  0  0  0  0  0  0  0
    5.8784    1.0349   -0.2218 H   0  0  0  0  0  0  0  0  0  0  0  0
    4.2421    0.6483   -3.6303 H   0  0  0  0  0  0  0  0  0  0  0  0
    3.7838   -0.8175   -2.7699 H   0  0  0  0  0  0  0  0  0  0  0  0
    2.5937    0.4669   -3.0093 H   0  0  0  0  0  0  0  0  0  0  0  0
  1  2  1  0
  2  3  2  0
  3  4  1  0
  4  5  2  0
  5  6  1  0
  6  7  1  0
  6  8  2  0
  8  9  1  0
  9 10  1  0
 10 11  2  0
 10 12  2  0
 10 13  1  0
 13 14  1  0
 14 15  2  0
 15 16  1  0
 16 17  1  0
 17 18  2  0
 17 19  1  0
 19 20  2  0
 20 21  1  0
 21 22  2  0
 22 23  1  0
 23 24  2  0
  4 25  1  0
 25 26  1  0
 25 27  1  0
 25 28  1  0
  8  2  1  0
 18 14  1  0
 24 19  1  0
  1 29  1  0
  1 30  1  0
  1 31  1  0
  3 32  1  0
  5 33  1  0
  7 34  1  0
  7 35  1  0
  7 36  1  0
  9 37  1  0
  9 38  1  0
 13 39  1  0
 13 40  1  0
 15 41  1  0
 21 42  1  0
 22 43  1  0
 23 44  1  0
 26 45  1  0
 26 46  1  0
 26 47  1  0
 27 48  1  0
 27 49  1  0
 27 50  1  0
 28 51  1  0
 28 52  1  0
 28 53  1  0
M  END
>  <Unnamed: 0>  (209) 
1349

>  <ID>  (209) 
TRAIN_1349

>  <Canonical_Smiles>  (209) 
Cc1cc(cc(C)c1CS(=O)(=O)Cc2csc(n2)c3ncccn3)C(C)(C)C

>  <Inhibition>  (209) 
82.0

>  <TDC_conf_true_inhibitor>  (209) 
1

>  <TDC_conf_non_inhibitor>  (209) 
0

>  <split>  (209) 
1

$$$$
209
     RDKit          3D

 46 48  0  0  0  0  0  0  0  0999 V2000
    0.6828    0.0000    0.0000 Cl  0  0  0  0  0  0  0  0  0  0  0  0
   -2.2243   -0.1558    1.4699 C   0  0  0  0  0  0  0  0  0  0  0  0
   -2.9287    0.7920    0.5567 C   0  0  0  0  0  0  0  0  0  0  0  0
   -4.2907    1.1089    1.1335 C   0  0  0  0  0  0  0  0  0  0  0  0
   -5.1345   -0.1380    1.2896 C   0  0  0  0  0  0  0  0  0  0  0  0
   -5.0013   -0.9581    0.0339 C   0  0  0  0  0  0  0  0  0  0  0  0
   -4.4404   -0.1504   -1.1121 C   0  0  0  0  0  0  0  0  0  0  0  0
   -3.0164    0.3035   -0.8648 C   0  0  0  0  0  0  0  0  0  0  0  0
   -2.1487   -0.7899   -1.1607 N   0  0  0  0  0  0  0  0  0  0  0  0
   -0.7045   -0.7092   -1.0409 C   0  0  0  0  0  0  0  0  0  0  0  0
   -0.2048    0.4312   -1.0020 N   0  0  0  0  0  0  0  0  0  0  0  0
    1.1373    0.7435   -0.8906 N   0  0  0  0  0  0  0  0  0  0  0  0
    2.1292   -0.2248   -0.8042 C   0  0  0  0  0  0  0  0  0  0  0  0
    3.3984    0.1641   -0.6029 C   0  0  0  0  0  0  0  0  0  0  0  0
    3.7059    1.4890   -0.4825 C   0  0  0  0  0  0  0  0  0  0  0  0
    5.0331    1.8987   -0.2840 C   0  0  0  0  0  0  0  0  0  0  0  0
    6.0206    0.9543   -0.2118 C   0  0  0  0  0  0  0  0  0  0  0  0
    7.3118    1.1163   -0.0329 N   0  0  0  0  0  0  0  0  0  0  0  0
    7.9645   -0.1269   -0.0225 C   0  0  0  0  0  0  0  0  0  0  0  0
    9.1937   -0.2823    0.1291 O   0  0  0  0  0  0  0  0  0  0  0  0
    6.9654   -1.0780   -0.2109 O   0  0  0  0  0  0  0  0  0  0  0  0
    5.7544   -0.3891   -0.3279 C   0  0  0  0  0  0  0  0  0  0  0  0
    4.4453   -0.7581   -0.5218 C   0  0  0  0  0  0  0  0  0  0  0  0
    1.9892   -1.7019   -0.8962 C   0  0  0  0  0  0  0  0  0  0  0  0
    0.2750   -2.1788   -0.9631 S   0  0  0  0  0  0  0  0  0  0  0  0
   -0.6828    0.0000    0.0000 H   0  0  0  0  0  0  0  0  0  0  0  0
   -2.3199   -1.2250    1.1748 H   0  0  0  0  0  0  0  0  0  0  0  0
   -1.1654    0.1442    1.6088 H   0  0  0  0  0  0  0  0  0  0  0  0
   -2.6871   -0.0793    2.4753 H   0  0  0  0  0  0  0  0  0  0  0  0
   -2.3582    1.7443    0.5617 H   0  0  0  0  0  0  0  0  0  0  0  0
   -4.8454    1.8163    0.4933 H   0  0  0  0  0  0  0  0  0  0  0  0
   -4.1606    1.5773    2.1298 H   0  0  0  0  0  0  0  0  0  0  0  0
   -4.8803   -0.7118    2.2043 H   0  0  0  0  0  0  0  0  0  0  0  0
   -6.1818    0.2053    1.4182 H   0  0  0  0  0  0  0  0  0  0  0  0
   -4.4314   -1.8645    0.2354 H   0  0  0  0  0  0  0  0  0  0  0  0
   -6.0206   -1.2732   -0.2759 H   0  0  0  0  0  0  0  0  0  0  0  0
   -5.0548    0.7274   -1.3118 H   0  0  0  0  0  0  0  0  0  0  0  0
   -4.4853   -0.8228   -2.0139 H   0  0  0  0  0  0  0  0  0  0  0  0
   -2.8624    1.1801   -1.5493 H   0  0  0  0  0  0  0  0  0  0  0  0
   -2.4987   -1.7276   -1.4846 H   0  0  0  0  0  0  0  0  0  0  0  0
    1.3016    1.7887   -0.8868 H   0  0  0  0  0  0  0  0  0  0  0  0
    2.9721    2.2792   -0.5274 H   0  0  0  0  0  0  0  0  0  0  0  0
    5.2537    2.9732   -0.1903 H   0  0  0  0  0  0  0  0  0  0  0  0
    4.2044   -1.7981   -0.6228 H   0  0  0  0  0  0  0  0  0  0  0  0
    2.5747   -2.1084   -1.7594 H   0  0  0  0  0  0  0  0  0  0  0  0
    2.4159   -2.1855    0.0457 H   0  0  0  0  0  0  0  0  0  0  0  0
  2  3  1  0
  3  4  1  0
  4  5  1  0
  5  6  1  0
  6  7  1  0
  7  8  1  0
  8  9  1  0
  9 10  1  0
 10 11  2  0
 11 12  1  0
 12 13  1  0
 13 14  2  0
 14 15  1  0
 15 16  2  0
 16 17  1  0
 17 18  2  0
 18 19  1  0
 19 20  2  0
 19 21  1  0
 21 22  1  0
 22 23  2  0
 13 24  1  0
 24 25  1  0
  8  3  1  0
 25 10  1  0
 23 14  1  0
 22 17  1  0
  1 26  1  0
  2 27  1  0
  2 28  1  0
  2 29  1  0
  3 30  1  0
  4 31  1  0
  4 32  1  0
  5 33  1  0
  5 34  1  0
  6 35  1  0
  6 36  1  0
  7 37  1  0
  7 38  1  0
  8 39  1  0
  9 40  1  0
 12 41  1  0
 15 42  1  0
 16 43  1  0
 23 44  1  0
 24 45  1  0
 24 46  1  0
M  END
>  <Unnamed: 0>  (210) 
1356

>  <ID>  (210) 
TRAIN_1356

>  <Canonical_Smiles>  (210) 
Cl.CC1CCCCC1NC2=NN\C(=C\3/C=CC4=NC(=O)OC4=C3)\CS2

>  <Inhibition>  (210) 
37.5

>  <TDC_conf_true_inhibitor>  (210) 
1

>  <TDC_conf_non_inhibitor>  (210) 
0

>  <split>  (210) 
1

$$$$
210
     RDKit          3D

 40 43  0  0  0  0  0  0  0  0999 V2000
   -0.1695   -1.6183    0.1300 C   0  0  0  0  0  0  0  0  0  0  0  0
   -1.3527   -0.7686   -0.0971 N   0  0  0  0  0  0  0  0  0  0  0  0
   -1.2730    0.4872    0.6734 C   0  0  0  0  0  0  0  0  0  0  0  0
   -2.4252    1.4268    0.2906 C   0  0  0  0  0  0  0  0  0  0  0  0
   -3.7647    0.7362    0.2997 C   0  0  0  0  0  0  0  0  0  0  0  0
   -4.9461    1.4895    0.2881 C   0  0  0  0  0  0  0  0  0  0  0  0
   -6.1864    0.8530    0.2621 C   0  0  0  0  0  0  0  0  0  0  0  0
   -6.2555   -0.5379    0.2412 C   0  0  0  0  0  0  0  0  0  0  0  0
   -5.0838   -1.2954    0.2422 C   0  0  0  0  0  0  0  0  0  0  0  0
   -3.8295   -0.6673    0.2580 C   0  0  0  0  0  0  0  0  0  0  0  0
   -2.5688   -1.5040    0.3036 C   0  0  0  0  0  0  0  0  0  0  0  0
    1.0329   -1.0498   -0.5504 C   0  0  0  0  0  0  0  0  0  0  0  0
    1.2152   -0.7577   -1.9116 C   0  0  0  0  0  0  0  0  0  0  0  0
    2.4393   -0.2712   -2.1207 N   0  0  0  0  0  0  0  0  0  0  0  0
    2.9663   -0.2684   -0.8653 N   0  0  0  0  0  0  0  0  0  0  0  0
    2.1526   -0.7431    0.1205 N   0  0  0  0  0  0  0  0  0  0  0  0
    4.2817    0.1942   -0.5994 C   0  0  0  0  0  0  0  0  0  0  0  0
    4.7832    0.1754    0.7103 C   0  0  0  0  0  0  0  0  0  0  0  0
    6.0777    0.6318    0.9672 C   0  0  0  0  0  0  0  0  0  0  0  0
    6.8724    1.1064   -0.0762 C   0  0  0  0  0  0  0  0  0  0  0  0
    6.3773    1.1270   -1.3800 C   0  0  0  0  0  0  0  0  0  0  0  0
    5.0840    0.6723   -1.6456 C   0  0  0  0  0  0  0  0  0  0  0  0
    0.0173   -1.7626    1.2021 H   0  0  0  0  0  0  0  0  0  0  0  0
   -0.3383   -2.6139   -0.3016 H   0  0  0  0  0  0  0  0  0  0  0  0
   -1.2979    0.2813    1.7524 H   0  0  0  0  0  0  0  0  0  0  0  0
   -0.3366    1.0197    0.4710 H   0  0  0  0  0  0  0  0  0  0  0  0
   -2.2526    1.8248   -0.7174 H   0  0  0  0  0  0  0  0  0  0  0  0
   -2.4380    2.2723    0.9886 H   0  0  0  0  0  0  0  0  0  0  0  0
   -4.9034    2.5760    0.2967 H   0  0  0  0  0  0  0  0  0  0  0  0
   -7.0990    1.4430    0.2554 H   0  0  0  0  0  0  0  0  0  0  0  0
   -7.2227   -1.0331    0.2228 H   0  0  0  0  0  0  0  0  0  0  0  0
   -5.1539   -2.3805    0.2286 H   0  0  0  0  0  0  0  0  0  0  0  0
   -2.4664   -1.8984    1.3238 H   0  0  0  0  0  0  0  0  0  0  0  0
   -2.6975   -2.3548   -0.3774 H   0  0  0  0  0  0  0  0  0  0  0  0
    0.5238   -0.8729   -2.7351 H   0  0  0  0  0  0  0  0  0  0  0  0
    4.1785   -0.1910    1.5374 H   0  0  0  0  0  0  0  0  0  0  0  0
    6.4661    0.6170    1.9825 H   0  0  0  0  0  0  0  0  0  0  0  0
    7.8798    1.4611    0.1270 H   0  0  0  0  0  0  0  0  0  0  0  0
    6.9985    1.4975   -2.1917 H   0  0  0  0  0  0  0  0  0  0  0  0
    4.7152    0.6964   -2.6693 H   0  0  0  0  0  0  0  0  0  0  0  0
  1  2  1  0
  2  3  1  0
  3  4  1  0
  4  5  1  0
  5  6  2  0
  6  7  1  0
  7  8  2  0
  8  9  1  0
  9 10  2  0
 10 11  1  0
  1 12  1  0
 12 13  1  0
 13 14  2  0
 14 15  1  0
 15 16  1  0
 15 17  1  0
 17 18  2  0
 18 19  1  0
 19 20  2  0
 20 21  1  0
 21 22  2  0
 11  2  1  0
 10  5  1  0
 16 12  2  0
 22 17  1  0
  1 23  1  0
  1 24  1  0
  3 25  1  0
  3 26  1  0
  4 27  1  0
  4 28  1  0
  6 29  1  0
  7 30  1  0
  8 31  1  0
  9 32  1  0
 11 33  1  0
 11 34  1  0
 13 35  1  0
 18 36  1  0
 19 37  1  0
 20 38  1  0
 21 39  1  0
 22 40  1  0
M  END
>  <Unnamed: 0>  (211) 
1360

>  <ID>  (211) 
TRAIN_1360

>  <Canonical_Smiles>  (211) 
C(N1CCc2ccccc2C1)c3cnn(n3)c4ccccc4

>  <Inhibition>  (211) 
0.5

>  <TDC_conf_true_inhibitor>  (211) 
0

>  <TDC_conf_non_inhibitor>  (211) 
1

>  <split>  (211) 
1

$$$$
211
     RDKit          3D

 40 41  0  0  0  0  0  0  0  0999 V2000
    0.6828    0.0000    0.0000 Cl  0  0  0  0  0  0  0  0  0  0  0  0
    3.5426    0.7801   -1.6191 C   0  0  0  0  0  0  0  0  0  0  0  0
    3.2673    0.3109   -0.1978 C   0  0  0  0  0  0  0  0  0  0  0  0
    3.4247    1.5053    0.7330 C   0  0  0  0  0  0  0  0  0  0  0  0
    4.2150   -0.7752    0.1948 C   0  0  0  0  0  0  0  0  0  0  0  0
    1.8511   -0.0873   -0.1457 C   0  0  0  0  0  0  0  0  0  0  0  0
    1.2297   -1.2696    0.1273 C   0  0  0  0  0  0  0  0  0  0  0  0
   -0.1117   -1.1072    0.0410 N   0  0  0  0  0  0  0  0  0  0  0  0
   -1.3110   -1.7046    0.1474 C   0  0  0  0  0  0  0  0  0  0  0  0
   -1.7047   -3.0080    0.4581 C   0  0  0  0  0  0  0  0  0  0  0  0
   -3.0489   -3.3232    0.4901 C   0  0  0  0  0  0  0  0  0  0  0  0
   -4.0105   -2.3457    0.2134 C   0  0  0  0  0  0  0  0  0  0  0  0
   -3.5822   -1.0613   -0.0913 C   0  0  0  0  0  0  0  0  0  0  0  0
   -2.2505   -0.7337   -0.1267 C   0  0  0  0  0  0  0  0  0  0  0  0
   -1.6420    0.4284   -0.3943 N   0  0  0  0  0  0  0  0  0  0  0  0
   -2.2356    1.7228   -0.7363 C   0  0  0  0  0  0  0  0  0  0  0  0
   -2.4711    2.4484    0.5541 C   0  0  0  0  0  0  0  0  0  0  0  0
   -3.7033    2.7939    0.8527 C   0  0  0  0  0  0  0  0  0  0  0  0
   -0.3120    0.1767   -0.2853 C   0  0  0  0  0  0  0  0  0  0  0  0
    0.8563    0.7994   -0.4002 N   0  0  0  0  0  0  0  0  0  0  0  0
   -0.6828    0.0000    0.0000 H   0  0  0  0  0  0  0  0  0  0  0  0
    2.7113    1.4522   -1.9066 H   0  0  0  0  0  0  0  0  0  0  0  0
    3.6133   -0.0478   -2.3295 H   0  0  0  0  0  0  0  0  0  0  0  0
    4.5018    1.3465   -1.5954 H   0  0  0  0  0  0  0  0  0  0  0  0
    3.6548    2.4134    0.1651 H   0  0  0  0  0  0  0  0  0  0  0  0
    4.2326    1.3315    1.4835 H   0  0  0  0  0  0  0  0  0  0  0  0
    2.4809    1.7185    1.3050 H   0  0  0  0  0  0  0  0  0  0  0  0
    5.2503   -0.3310    0.1055 H   0  0  0  0  0  0  0  0  0  0  0  0
    4.1379   -1.6259   -0.4951 H   0  0  0  0  0  0  0  0  0  0  0  0
    4.0938   -1.0328    1.2476 H   0  0  0  0  0  0  0  0  0  0  0  0
    1.7408   -2.1814    0.3718 H   0  0  0  0  0  0  0  0  0  0  0  0
   -0.9574   -3.7537    0.6701 H   0  0  0  0  0  0  0  0  0  0  0  0
   -3.4137   -4.3255    0.7272 H   0  0  0  0  0  0  0  0  0  0  0  0
   -5.0676   -2.5534    0.2281 H   0  0  0  0  0  0  0  0  0  0  0  0
   -4.3435   -0.3103   -0.3047 H   0  0  0  0  0  0  0  0  0  0  0  0
   -3.1616    1.5560   -1.2991 H   0  0  0  0  0  0  0  0  0  0  0  0
   -1.4638    2.2663   -1.3276 H   0  0  0  0  0  0  0  0  0  0  0  0
   -1.5963    2.6430    1.1626 H   0  0  0  0  0  0  0  0  0  0  0  0
   -3.8994    3.3164    1.7760 H   0  0  0  0  0  0  0  0  0  0  0  0
   -4.5174    2.5679    0.2004 H   0  0  0  0  0  0  0  0  0  0  0  0
  2  3  1  0
  3  4  1  0
  3  5  1  0
  3  6  1  0
  6  7  2  0
  7  8  1  0
  8  9  1  0
  9 10  2  0
 10 11  1  0
 11 12  2  0
 12 13  1  0
 13 14  2  0
 14 15  1  0
 15 16  1  0
 16 17  1  0
 17 18  2  0
 15 19  1  0
 19 20  2  0
 20  6  1  0
 19  8  1  0
 14  9  1  0
  1 21  1  0
  2 22  1  0
  2 23  1  0
  2 24  1  0
  4 25  1  0
  4 26  1  0
  4 27  1  0
  5 28  1  0
  5 29  1  0
  5 30  1  0
  7 31  1  0
 10 32  1  0
 11 33  1  0
 12 34  1  0
 13 35  1  0
 16 36  1  0
 16 37  1  0
 17 38  1  0
 18 39  1  0
 18 40  1  0
M  END
>  <Unnamed: 0>  (212) 
1364

>  <ID>  (212) 
TRAIN_1364

>  <Canonical_Smiles>  (212) 
Cl.CC(C)(C)c1cn2c3ccccc3n(CC=C)c2n1

>  <Inhibition>  (212) 
59.8

>  <TDC_conf_true_inhibitor>  (212) 
1

>  <TDC_conf_non_inhibitor>  (212) 
0

>  <split>  (212) 
1

$$$$
212
     RDKit          3D

 59 61  0  0  0  0  0  0  0  0999 V2000
   -7.9648    0.8491    0.8561 C   0  0  0  0  0  0  0  0  0  0  0  0
   -6.6755    1.1840    0.1172 C   0  0  0  0  0  0  0  0  0  0  0  0
   -5.5515    0.1390    0.3023 C   0  0  1  0  0  0  0  0  0  0  0  0
   -6.0080   -1.2479   -0.1776 C   0  0  0  0  0  0  0  0  0  0  0  0
   -4.2606    0.5655   -0.4403 C   0  0  2  0  0  0  0  0  0  0  0  0
   -3.1835   -0.4101   -0.2255 N   0  0  0  0  0  0  0  0  0  0  0  0
   -2.2034   -0.5965   -1.1801 C   0  0  0  0  0  0  0  0  0  0  0  0
   -2.2679   -0.1013   -2.2992 O   0  0  0  0  0  0  0  0  0  0  0  0
   -1.0435   -1.4728   -0.7032 C   0  0  2  0  0  0  0  0  0  0  0  0
   -0.1886   -0.7364    0.3480 C   0  0  0  0  0  0  0  0  0  0  0  0
    1.0901   -0.1557   -0.2519 C   0  0  0  0  0  0  0  0  0  0  0  0
    1.9966   -1.2388   -0.8713 C   0  0  1  0  0  0  0  0  0  0  0  0
    3.0569   -1.7652    0.1184 C   0  0  0  0  0  0  0  0  0  0  0  0
    4.0501   -0.7541    0.4747 N   0  0  0  0  0  0  0  0  0  0  0  0
    4.1399   -0.3659    1.8306 N   0  0  0  0  0  0  0  0  0  0  0  0
    4.7060    0.9082    2.0010 N   0  0  0  0  0  0  0  0  0  0  0  0
    5.8868    1.1555    1.2619 C   0  0  0  0  0  0  0  0  0  0  0  0
    6.7783    2.1611    1.6548 C   0  0  0  0  0  0  0  0  0  0  0  0
    7.9099    2.4457    0.8838 C   0  0  0  0  0  0  0  0  0  0  0  0
    8.1458    1.7488   -0.3012 C   0  0  0  0  0  0  0  0  0  0  0  0
    7.2430    0.7747   -0.7250 C   0  0  0  0  0  0  0  0  0  0  0  0
    6.1141    0.4909    0.0529 C   0  0  0  0  0  0  0  0  0  0  0  0
    5.1074   -0.4926   -0.4035 C   0  0  0  0  0  0  0  0  0  0  0  0
    5.2214   -1.0123   -1.5125 O   0  0  0  0  0  0  0  0  0  0  0  0
    1.1812   -2.4227   -1.4268 C   0  0  0  0  0  0  0  0  0  0  0  0
   -0.2045   -1.9859   -1.8862 C   0  0  0  0  0  0  0  0  0  0  0  0
   -3.7170    1.8929    0.0971 C   0  0  0  0  0  0  0  0  0  0  0  0
   -3.0240    2.0327    1.0958 O   0  0  0  0  0  0  0  0  0  0  0  0
   -4.0912    2.9623   -0.6320 O   0  0  0  0  0  0  0  0  0  0  0  0
   -8.6597    1.6932    0.7959 H   0  0  0  0  0  0  0  0  0  0  0  0
   -7.7708    0.6453    1.9137 H   0  0  0  0  0  0  0  0  0  0  0  0
   -8.4676   -0.0179    0.4184 H   0  0  0  0  0  0  0  0  0  0  0  0
   -6.3360    2.1570    0.4890 H   0  0  0  0  0  0  0  0  0  0  0  0
   -6.8968    1.3112   -0.9494 H   0  0  0  0  0  0  0  0  0  0  0  0
   -5.3305    0.0645    1.3760 H   0  0  0  0  0  0  0  0  0  0  0  0
   -6.2945   -1.2237   -1.2344 H   0  0  0  0  0  0  0  0  0  0  0  0
   -6.8638   -1.6088    0.4007 H   0  0  0  0  0  0  0  0  0  0  0  0
   -5.2174   -1.9957   -0.0584 H   0  0  0  0  0  0  0  0  0  0  0  0
   -4.4437    0.6645   -1.5165 H   0  0  0  0  0  0  0  0  0  0  0  0
   -2.9209   -0.5720    0.7396 H   0  0  0  0  0  0  0  0  0  0  0  0
   -1.4991   -2.3441   -0.2114 H   0  0  0  0  0  0  0  0  0  0  0  0
    0.0845   -1.4420    1.1432 H   0  0  0  0  0  0  0  0  0  0  0  0
   -0.7493    0.0702    0.8330 H   0  0  0  0  0  0  0  0  0  0  0  0
    1.6239    0.4265    0.5060 H   0  0  0  0  0  0  0  0  0  0  0  0
    0.8101    0.5613   -1.0352 H   0  0  0  0  0  0  0  0  0  0  0  0
    2.5195   -0.7672   -1.7141 H   0  0  0  0  0  0  0  0  0  0  0  0
    3.5923   -2.6105   -0.3324 H   0  0  0  0  0  0  0  0  0  0  0  0
    2.5741   -2.1414    1.0289 H   0  0  0  0  0  0  0  0  0  0  0  0
    3.1890   -0.3563    2.2149 H   0  0  0  0  0  0  0  0  0  0  0  0
    4.8385    1.1737    2.9784 H   0  0  0  0  0  0  0  0  0  0  0  0
    6.6017    2.7303    2.5632 H   0  0  0  0  0  0  0  0  0  0  0  0
    8.6034    3.2197    1.2039 H   0  0  0  0  0  0  0  0  0  0  0  0
    9.0223    1.9752   -0.9032 H   0  0  0  0  0  0  0  0  0  0  0  0
    7.4083    0.2476   -1.6616 H   0  0  0  0  0  0  0  0  0  0  0  0
    1.0716   -3.2073   -0.6668 H   0  0  0  0  0  0  0  0  0  0  0  0
    1.7258   -2.8764   -2.2636 H   0  0  0  0  0  0  0  0  0  0  0  0
   -0.7239   -2.8287   -2.3582 H   0  0  0  0  0  0  0  0  0  0  0  0
   -0.0954   -1.2205   -2.6646 H   0  0  0  0  0  0  0  0  0  0  0  0
   -3.6391    3.7203   -0.2069 H   0  0  0  0  0  0  0  0  0  0  0  0
  1  2  1  0
  2  3  1  0
  3  4  1  0
  3  5  1  0
  5  6  1  0
  6  7  1  0
  7  8  2  0
  7  9  1  0
  9 10  1  0
 10 11  1  0
 11 12  1  0
 12 13  1  0
 13 14  1  0
 14 15  1  0
 15 16  1  0
 16 17  1  0
 17 18  2  0
 18 19  1  0
 19 20  2  0
 20 21  1  0
 21 22  2  0
 22 23  1  0
 23 24  2  0
 12 25  1  0
 25 26  1  0
  5 27  1  0
 27 28  2  0
 27 29  1  0
 26  9  1  0
 23 14  1  0
 22 17  1  0
  1 30  1  0
  1 31  1  0
  1 32  1  0
  2 33  1  0
  2 34  1  0
  3 35  1  1
  4 36  1  0
  4 37  1  0
  4 38  1  0
  5 39  1  6
  6 40  1  0
  9 41  1  1
 10 42  1  0
 10 43  1  0
 11 44  1  0
 11 45  1  0
 12 46  1  6
 13 47  1  0
 13 48  1  0
 15 49  1  0
 16 50  1  0
 18 51  1  0
 19 52  1  0
 20 53  1  0
 21 54  1  0
 25 55  1  0
 25 56  1  0
 26 57  1  0
 26 58  1  0
 29 59  1  0
M  END
>  <Unnamed: 0>  (213) 
1369

>  <ID>  (213) 
TRAIN_1369

>  <Canonical_Smiles>  (213) 
CC[C@@H](C)[C@H](NC(=O)[C@@H]1CC[C@@H](CN2NNc3ccccc3C2=O)CC1)C(=O)O

>  <Inhibition>  (213) 
38.1

>  <TDC_conf_true_inhibitor>  (213) 
0

>  <TDC_conf_non_inhibitor>  (213) 
1

>  <split>  (213) 
1

$$$$
213
     RDKit          3D

 52 54  0  0  0  0  0  0  0  0999 V2000
   -0.1258    0.8519   -2.9626 O   0  0  0  0  0  0  0  0  0  0  0  0
    0.4369    0.3164   -2.0139 C   0  0  0  0  0  0  0  0  0  0  0  0
    1.7233   -0.5062   -2.1726 C   0  0  0  0  0  0  0  0  0  0  0  0
    2.5762   -0.4140   -0.9537 N   0  0  0  0  0  0  0  0  0  0  0  0
    3.1959    0.9226   -0.8773 C   0  0  0  0  0  0  0  0  0  0  0  0
    4.2994    1.1166    0.1681 C   0  0  0  0  0  0  0  0  0  0  0  0
    4.0686    0.3813    1.4844 C   0  0  0  0  0  0  0  0  0  0  0  0
    4.5594   -1.0634    1.4269 C   0  0  0  0  0  0  0  0  0  0  0  0
    3.7598   -1.9891    0.5149 C   0  0  0  0  0  0  0  0  0  0  0  0
    3.5599   -1.5022   -0.9229 C   0  0  0  0  0  0  0  0  0  0  0  0
   -0.0452    0.3263   -0.7238 N   0  0  0  0  0  0  0  0  0  0  0  0
   -1.2127    1.0747   -0.2925 C   0  0  0  0  0  0  0  0  0  0  0  0
   -2.4299    0.1670    0.0852 C   0  0  0  0  0  0  0  0  0  0  0  0
   -1.9420   -0.8624    1.1550 C   0  0  0  0  0  0  0  0  0  0  0  0
   -2.9658   -1.1606    2.2450 C   0  0  0  0  0  0  0  0  0  0  0  0
   -3.4236    0.1354    2.9105 C   0  0  0  0  0  0  0  0  0  0  0  0
   -3.9482    1.0945    1.8877 C   0  0  0  0  0  0  0  0  0  0  0  0
   -3.5663    1.0542    0.6008 C   0  0  0  0  0  0  0  0  0  0  0  0
   -4.2916    1.7670   -0.3224 N   0  0  0  0  0  0  0  0  0  0  0  0
   -4.3540    1.5182   -1.6690 C   0  0  0  0  0  0  0  0  0  0  0  0
   -5.0875    2.1945   -2.3882 O   0  0  0  0  0  0  0  0  0  0  0  0
   -3.4992    0.3974   -2.2207 C   0  0  0  0  0  0  0  0  0  0  0  0
   -2.9895   -0.5698   -1.1512 C   0  0  0  0  0  0  0  0  0  0  0  0
    2.2622   -0.1817   -3.0707 H   0  0  0  0  0  0  0  0  0  0  0  0
    1.3833   -1.5380   -2.3268 H   0  0  0  0  0  0  0  0  0  0  0  0
    2.4099    1.6558   -0.6564 H   0  0  0  0  0  0  0  0  0  0  0  0
    3.6171    1.2079   -1.8509 H   0  0  0  0  0  0  0  0  0  0  0  0
    5.2686    0.8262   -0.2572 H   0  0  0  0  0  0  0  0  0  0  0  0
    4.3732    2.1914    0.3764 H   0  0  0  0  0  0  0  0  0  0  0  0
    4.6441    0.8948    2.2651 H   0  0  0  0  0  0  0  0  0  0  0  0
    3.0163    0.4286    1.7882 H   0  0  0  0  0  0  0  0  0  0  0  0
    5.6123   -1.0776    1.1153 H   0  0  0  0  0  0  0  0  0  0  0  0
    4.5372   -1.4798    2.4416 H   0  0  0  0  0  0  0  0  0  0  0  0
    2.7809   -2.1864    0.9721 H   0  0  0  0  0  0  0  0  0  0  0  0
    4.2749   -2.9580    0.4831 H   0  0  0  0  0  0  0  0  0  0  0  0
    4.5094   -1.2282   -1.3992 H   0  0  0  0  0  0  0  0  0  0  0  0
    3.1856   -2.3688   -1.4827 H   0  0  0  0  0  0  0  0  0  0  0  0
    0.6095   -0.0313   -0.0307 H   0  0  0  0  0  0  0  0  0  0  0  0
   -0.8924    1.6487    0.5867 H   0  0  0  0  0  0  0  0  0  0  0  0
   -1.4719    1.8122   -1.0595 H   0  0  0  0  0  0  0  0  0  0  0  0
   -1.6357   -1.8005    0.6748 H   0  0  0  0  0  0  0  0  0  0  0  0
   -1.0449   -0.4814    1.6630 H   0  0  0  0  0  0  0  0  0  0  0  0
   -2.5259   -1.8255    2.9970 H   0  0  0  0  0  0  0  0  0  0  0  0
   -3.8245   -1.6902    1.8134 H   0  0  0  0  0  0  0  0  0  0  0  0
   -2.6067    0.6038    3.4710 H   0  0  0  0  0  0  0  0  0  0  0  0
   -4.2199   -0.1002    3.6260 H   0  0  0  0  0  0  0  0  0  0  0  0
   -4.7535    1.7487    2.2130 H   0  0  0  0  0  0  0  0  0  0  0  0
   -4.9824    2.4398   -0.0082 H   0  0  0  0  0  0  0  0  0  0  0  0
   -4.1017   -0.1638   -2.9444 H   0  0  0  0  0  0  0  0  0  0  0  0
   -2.6716    0.8530   -2.7701 H   0  0  0  0  0  0  0  0  0  0  0  0
   -2.2329   -1.2281   -1.5952 H   0  0  0  0  0  0  0  0  0  0  0  0
   -3.8189   -1.2217   -0.8426 H   0  0  0  0  0  0  0  0  0  0  0  0
  1  2  2  0
  2  3  1  0
  3  4  1  0
  4  5  1  0
  5  6  1  0
  6  7  1  0
  7  8  1  0
  8  9  1  0
  9 10  1  0
  2 11  1  0
 11 12  1  0
 12 13  1  0
 13 14  1  0
 14 15  1  0
 15 16  1  0
 16 17  1  0
 17 18  2  0
 18 19  1  0
 19 20  1  0
 20 21  2  0
 20 22  1  0
 22 23  1  0
 10  4  1  0
 18 13  1  0
 23 13  1  0
  3 24  1  0
  3 25  1  0
  5 26  1  0
  5 27  1  0
  6 28  1  0
  6 29  1  0
  7 30  1  0
  7 31  1  0
  8 32  1  0
  8 33  1  0
  9 34  1  0
  9 35  1  0
 10 36  1  0
 10 37  1  0
 11 38  1  0
 12 39  1  0
 12 40  1  0
 14 41  1  0
 14 42  1  0
 15 43  1  0
 15 44  1  0
 16 45  1  0
 16 46  1  0
 17 47  1  0
 19 48  1  0
 22 49  1  0
 22 50  1  0
 23 51  1  0
 23 52  1  0
M  END
>  <Unnamed: 0>  (214) 
1371

>  <ID>  (214) 
TRAIN_1371

>  <Canonical_Smiles>  (214) 
O=C(CN1CCCCCC1)NCC23CCCC=C2NC(=O)CC3

>  <Inhibition>  (214) 
0.5

>  <TDC_conf_true_inhibitor>  (214) 
0

>  <TDC_conf_non_inhibitor>  (214) 
1

>  <split>  (214) 
1

$$$$
214
     RDKit          3D

 70 70  0  0  0  0  0  0  0  0999 V2000
    0.6828    0.0000    0.0000 Cl  0  0  0  0  0  0  0  0  0  0  0  0
    0.6828    0.0000    0.0000 Cl  0  0  0  0  0  0  0  0  0  0  0  0
   -7.0895   -0.1726   -2.0666 C   0  0  0  0  0  0  0  0  0  0  0  0
   -6.9941    1.1579   -1.3843 C   0  0  0  0  0  0  0  0  0  0  0  0
   -6.7776    1.0302    0.0773 N   0  0  0  0  0  0  0  0  0  0  0  0
   -8.0308    0.4759    0.6310 C   0  0  0  0  0  0  0  0  0  0  0  0
   -9.1005    1.5457    0.4832 C   0  0  0  0  0  0  0  0  0  0  0  0
   -5.6978    0.0600    0.2847 C   0  0  0  0  0  0  0  0  0  0  0  0
   -5.2533    0.1146    1.7142 C   0  0  0  0  0  0  0  0  0  0  0  0
   -4.2518   -0.7448    2.0554 O   0  0  0  0  0  0  0  0  0  0  0  0
   -2.9666   -0.7991    1.6111 C   0  0  0  0  0  0  0  0  0  0  0  0
   -2.1739   -1.8351    2.1284 C   0  0  0  0  0  0  0  0  0  0  0  0
   -0.8686   -2.0062    1.7666 C   0  0  0  0  0  0  0  0  0  0  0  0
   -0.2970   -1.1525    0.8755 C   0  0  0  0  0  0  0  0  0  0  0  0
   -1.0263   -0.1324    0.3493 C   0  0  0  0  0  0  0  0  0  0  0  0
   -2.3660    0.0488    0.7156 C   0  0  0  0  0  0  0  0  0  0  0  0
   -0.1661    0.6032   -0.5649 C   0  0  0  0  0  0  0  0  0  0  0  0
   -0.4720    1.6301   -1.2626 N   0  0  0  0  0  0  0  0  0  0  0  0
   -1.7186    2.1985   -1.2340 O   0  0  0  0  0  0  0  0  0  0  0  0
    1.1515   -0.0408   -0.5638 C   0  0  0  0  0  0  0  0  0  0  0  0
    2.3295    0.2057   -1.2144 C   0  0  0  0  0  0  0  0  0  0  0  0
    3.4819   -0.5874   -1.0337 C   0  0  0  0  0  0  0  0  0  0  0  0
    4.6111   -0.2701   -1.7256 O   0  0  0  0  0  0  0  0  0  0  0  0
    5.8614   -0.8254   -1.7514 C   0  0  0  0  0  0  0  0  0  0  0  0
    6.7059   -0.7973   -0.5338 C   0  0  0  0  0  0  0  0  0  0  0  0
    7.0592    0.4610    0.0016 N   0  0  0  0  0  0  0  0  0  0  0  0
    6.0673    1.2549    0.6097 C   0  0  0  0  0  0  0  0  0  0  0  0
    5.6443    0.6183    1.9216 C   0  0  0  0  0  0  0  0  0  0  0  0
    8.0891    1.1756   -0.6966 C   0  0  0  0  0  0  0  0  0  0  0  0
    9.4021    0.4254   -0.5394 C   0  0  0  0  0  0  0  0  0  0  0  0
    3.3344   -1.6312   -0.1534 C   0  0  0  0  0  0  0  0  0  0  0  0
    2.1565   -1.9021    0.5183 C   0  0  0  0  0  0  0  0  0  0  0  0
    1.0497   -1.0926    0.3077 C   0  0  0  0  0  0  0  0  0  0  0  0
   -0.6828    0.0000    0.0000 H   0  0  0  0  0  0  0  0  0  0  0  0
   -0.6828    0.0000    0.0000 H   0  0  0  0  0  0  0  0  0  0  0  0
   -8.0497   -0.6851   -1.8910 H   0  0  0  0  0  0  0  0  0  0  0  0
   -7.0599    0.0246   -3.1771 H   0  0  0  0  0  0  0  0  0  0  0  0
   -6.2223   -0.8408   -1.8825 H   0  0  0  0  0  0  0  0  0  0  0  0
   -6.2113    1.8043   -1.7652 H   0  0  0  0  0  0  0  0  0  0  0  0
   -7.9576    1.6929   -1.4865 H   0  0  0  0  0  0  0  0  0  0  0  0
   -7.8897    0.2669    1.6861 H   0  0  0  0  0  0  0  0  0  0  0  0
   -8.3045   -0.4689    0.1123 H   0  0  0  0  0  0  0  0  0  0  0  0
   -9.7002    1.3805   -0.4431 H   0  0  0  0  0  0  0  0  0  0  0  0
   -8.6826    2.5683    0.4247 H   0  0  0  0  0  0  0  0  0  0  0  0
   -9.7648    1.5381    1.3929 H   0  0  0  0  0  0  0  0  0  0  0  0
   -4.8876    0.1514   -0.4247 H   0  0  0  0  0  0  0  0  0  0  0  0
   -6.1209   -0.9842    0.1098 H   0  0  0  0  0  0  0  0  0  0  0  0
   -6.1267   -0.0860    2.3839 H   0  0  0  0  0  0  0  0  0  0  0  0
   -4.9724    1.1953    1.9277 H   0  0  0  0  0  0  0  0  0  0  0  0
   -2.6271   -2.5105    2.8375 H   0  0  0  0  0  0  0  0  0  0  0  0
   -0.2529   -2.8174    2.1769 H   0  0  0  0  0  0  0  0  0  0  0  0
   -2.8911    0.8790    0.2923 H   0  0  0  0  0  0  0  0  0  0  0  0
   -2.2864    2.3429   -2.0751 H   0  0  0  0  0  0  0  0  0  0  0  0
    2.3835    1.0337   -1.8918 H   0  0  0  0  0  0  0  0  0  0  0  0
    5.6970   -1.9433   -1.9663 H   0  0  0  0  0  0  0  0  0  0  0  0
    6.4310   -0.5158   -2.6760 H   0  0  0  0  0  0  0  0  0  0  0  0
    6.2301   -1.3904    0.2688 H   0  0  0  0  0  0  0  0  0  0  0  0
    7.6906   -1.3448   -0.7224 H   0  0  0  0  0  0  0  0  0  0  0  0
    6.5102    2.2574    0.8831 H   0  0  0  0  0  0  0  0  0  0  0  0
    5.1784    1.4916   -0.0125 H   0  0  0  0  0  0  0  0  0  0  0  0
    5.2106    1.3598    2.6307 H   0  0  0  0  0  0  0  0  0  0  0  0
    4.8649   -0.1251    1.7039 H   0  0  0  0  0  0  0  0  0  0  0  0
    6.5256    0.1008    2.3626 H   0  0  0  0  0  0  0  0  0  0  0  0
    8.2501    2.1403   -0.1299 H   0  0  0  0  0  0  0  0  0  0  0  0
    7.8509    1.4490   -1.7188 H   0  0  0  0  0  0  0  0  0  0  0  0
   10.2324    1.1058   -0.8188 H   0  0  0  0  0  0  0  0  0  0  0  0
    9.5349    0.1452    0.5236 H   0  0  0  0  0  0  0  0  0  0  0  0
    9.4454   -0.4646   -1.2022 H   0  0  0  0  0  0  0  0  0  0  0  0
    4.1656   -2.3188    0.0402 H   0  0  0  0  0  0  0  0  0  0  0  0
    2.1128   -2.7469    1.2002 H   0  0  0  0  0  0  0  0  0  0  0  0
  3  4  1  0
  4  5  1  0
  5  6  1  0
  6  7  1  0
  5  8  1  0
  8  9  1  0
  9 10  1  0
 10 11  1  0
 11 12  2  0
 12 13  1  0
 13 14  2  0
 14 15  1  0
 15 16  2  0
 15 17  1  0
 17 18  2  3
 18 19  1  0
 17 20  1  0
 20 21  2  0
 21 22  1  0
 22 23  1  0
 23 24  1  0
 24 25  1  0
 25 26  1  0
 26 27  1  0
 27 28  1  0
 26 29  1  0
 29 30  1  0
 22 31  2  0
 31 32  1  0
 32 33  2  0
 16 11  1  0
 33 14  1  0
 33 20  1  0
  1 34  1  0
  2 35  1  0
  3 36  1  0
  3 37  1  0
  3 38  1  0
  4 39  1  0
  4 40  1  0
  6 41  1  0
  6 42  1  0
  7 43  1  0
  7 44  1  0
  7 45  1  0
  8 46  1  0
  8 47  1  0
  9 48  1  0
  9 49  1  0
 12 50  1  0
 13 51  1  0
 16 52  1  0
 19 53  1  0
 21 54  1  0
 24 55  1  0
 24 56  1  0
 25 57  1  0
 25 58  1  0
 27 59  1  0
 27 60  1  0
 28 61  1  0
 28 62  1  0
 28 63  1  0
 29 64  1  0
 29 65  1  0
 30 66  1  0
 30 67  1  0
 30 68  1  0
 31 69  1  0
 32 70  1  0
M  END
>  <Unnamed: 0>  (215) 
1377

>  <ID>  (215) 
TRAIN_1377

>  <Canonical_Smiles>  (215) 
Cl.Cl.CCN(CC)CCOc1ccc2c(c1)C(=NO)c3cc(OCCN(CC)CC)ccc23

>  <Inhibition>  (215) 
9.75

>  <TDC_conf_true_inhibitor>  (215) 
0

>  <TDC_conf_non_inhibitor>  (215) 
1

>  <split>  (215) 
1

$$$$
215
     RDKit          3D

 47 50  0  0  0  0  0  0  0  0999 V2000
   -2.1396    2.3334   -0.2873 C   0  0  0  0  0  0  0  0  0  0  0  0
   -2.1006    1.0532    0.4624 N   0  0  0  0  0  0  0  0  0  0  0  0
   -3.1861    0.1614    0.1371 C   0  0  0  0  0  0  0  0  0  0  0  0
   -4.3118    0.1840    0.9634 C   0  0  0  0  0  0  0  0  0  0  0  0
   -5.4329   -0.5971    0.6585 C   0  0  0  0  0  0  0  0  0  0  0  0
   -6.6473   -0.5593    1.5381 C   0  0  0  0  0  0  0  0  0  0  0  0
   -5.4281   -1.3693   -0.5107 C   0  0  0  0  0  0  0  0  0  0  0  0
   -4.3108   -1.3875   -1.3563 C   0  0  0  0  0  0  0  0  0  0  0  0
   -4.3305   -2.1909   -2.6233 C   0  0  0  0  0  0  0  0  0  0  0  0
   -3.1987   -0.5987   -1.0364 C   0  0  0  0  0  0  0  0  0  0  0  0
   -0.5604    0.3060    0.5148 S   0  0  0  0  0  6  0  0  0  0  0  0
    0.0632    0.4591   -0.7824 O   0  0  0  0  0  0  0  0  0  0  0  0
   -0.6466   -0.9656    1.1970 O   0  0  0  0  0  0  0  0  0  0  0  0
    0.4612    1.2228    1.5785 C   0  0  0  0  0  0  0  0  0  0  0  0
   -0.0579    2.1416    2.5461 C   0  0  0  0  0  0  0  0  0  0  0  0
    0.9439    2.7662    3.2514 C   0  0  0  0  0  0  0  0  0  0  0  0
    2.4914    2.2360    2.7647 S   0  0  0  0  0  0  0  0  0  0  0  0
    1.8415    1.1246    1.6179 C   0  0  0  0  0  0  0  0  0  0  0  0
    2.7235    0.2611    0.8761 C   0  0  0  0  0  0  0  0  0  0  0  0
    2.3403   -0.9239    0.3035 O   0  0  0  0  0  0  0  0  0  0  0  0
    3.4667   -1.4781   -0.2957 N   0  0  0  0  0  0  0  0  0  0  0  0
    4.4346   -0.5882   -0.0372 C   0  0  0  0  0  0  0  0  0  0  0  0
    4.0081    0.4975    0.6947 N   0  0  0  0  0  0  0  0  0  0  0  0
    5.8128   -0.7350   -0.4708 C   0  0  0  0  0  0  0  0  0  0  0  0
    6.7801    0.2247   -0.1544 C   0  0  0  0  0  0  0  0  0  0  0  0
    8.0950    0.0559   -0.5853 C   0  0  0  0  0  0  0  0  0  0  0  0
    8.4045   -1.0738   -1.3240 C   0  0  0  0  0  0  0  0  0  0  0  0
    7.5030   -2.0235   -1.6517 N   0  0  0  0  0  0  0  0  0  0  0  0
    6.2303   -1.8320   -1.2182 C   0  0  0  0  0  0  0  0  0  0  0  0
   -2.0562    2.1681   -1.3661 H   0  0  0  0  0  0  0  0  0  0  0  0
   -3.0827    2.8528   -0.0852 H   0  0  0  0  0  0  0  0  0  0  0  0
   -1.3346    3.0000    0.0339 H   0  0  0  0  0  0  0  0  0  0  0  0
   -4.3096    0.8066    1.8542 H   0  0  0  0  0  0  0  0  0  0  0  0
   -7.3285    0.2281    1.2015 H   0  0  0  0  0  0  0  0  0  0  0  0
   -6.3696   -0.3661    2.5797 H   0  0  0  0  0  0  0  0  0  0  0  0
   -7.1753   -1.5185    1.5161 H   0  0  0  0  0  0  0  0  0  0  0  0
   -6.3046   -1.9627   -0.7666 H   0  0  0  0  0  0  0  0  0  0  0  0
   -3.3218   -2.5224   -2.8918 H   0  0  0  0  0  0  0  0  0  0  0  0
   -4.7343   -1.5878   -3.4422 H   0  0  0  0  0  0  0  0  0  0  0  0
   -4.9466   -3.0887   -2.5069 H   0  0  0  0  0  0  0  0  0  0  0  0
   -2.3451   -0.5833   -1.7102 H   0  0  0  0  0  0  0  0  0  0  0  0
   -1.1107    2.3376    2.7138 H   0  0  0  0  0  0  0  0  0  0  0  0
    0.8438    3.5082    4.0327 H   0  0  0  0  0  0  0  0  0  0  0  0
    6.5157    1.1053    0.4270 H   0  0  0  0  0  0  0  0  0  0  0  0
    8.8581    0.7893   -0.3495 H   0  0  0  0  0  0  0  0  0  0  0  0
    9.4147   -1.2502   -1.6826 H   0  0  0  0  0  0  0  0  0  0  0  0
    5.5385   -2.6208   -1.5058 H   0  0  0  0  0  0  0  0  0  0  0  0
  1  2  1  0
  2  3  1  0
  3  4  2  0
  4  5  1  0
  5  6  1  0
  5  7  2  0
  7  8  1  0
  8  9  1  0
  8 10  2  0
  2 11  1  0
 11 12  2  0
 11 13  2  0
 11 14  1  0
 14 15  1  0
 15 16  2  0
 16 17  1  0
 17 18  1  0
 18 19  1  0
 19 20  1  0
 20 21  1  0
 21 22  2  0
 22 23  1  0
 22 24  1  0
 24 25  2  0
 25 26  1  0
 26 27  2  0
 27 28  1  0
 28 29  2  0
 10  3  1  0
 18 14  2  0
 23 19  2  0
 29 24  1  0
  1 30  1  0
  1 31  1  0
  1 32  1  0
  4 33  1  0
  6 34  1  0
  6 35  1  0
  6 36  1  0
  7 37  1  0
  9 38  1  0
  9 39  1  0
  9 40  1  0
 10 41  1  0
 15 42  1  0
 16 43  1  0
 25 44  1  0
 26 45  1  0
 27 46  1  0
 29 47  1  0
M  END
>  <Unnamed: 0>  (216) 
1432

>  <ID>  (216) 
TRAIN_1432

>  <Canonical_Smiles>  (216) 
CN(c1cc(C)cc(C)c1)S(=O)(=O)c2ccsc2c3onc(n3)c4cccnc4

>  <Inhibition>  (216) 
93.9

>  <TDC_conf_true_inhibitor>  (216) 
1

>  <TDC_conf_non_inhibitor>  (216) 
0

>  <split>  (216) 
1

$$$$
216
     RDKit          3D

 54 55  0  0  0  0  0  0  0  0999 V2000
    0.6828    0.0000    0.0000 Cl  0  0  0  0  0  0  0  0  0  0  0  0
   -6.4048   -1.6952    0.9254 C   0  0  0  0  0  0  0  0  0  0  0  0
   -6.5087   -0.2218    1.1345 C   0  0  0  0  0  0  0  0  0  0  0  0
   -7.1431    0.4041    2.1616 N   0  0  0  0  0  0  0  0  0  0  0  0
   -7.0121    1.6912    1.9822 N   0  0  0  0  0  0  0  0  0  0  0  0
   -6.3169    1.9789    0.8798 C   0  0  0  0  0  0  0  0  0  0  0  0
   -5.9814    0.7494    0.3155 C   0  0  0  0  0  0  0  0  0  0  0  0
   -5.2011    0.6001   -0.9297 C   0  0  0  0  0  0  0  0  0  0  0  0
   -3.7608    0.2276   -0.6851 C   0  0  0  0  0  0  0  0  0  0  0  0
   -3.0462    1.2750    0.1417 C   0  0  0  0  0  0  0  0  0  0  0  0
   -1.6635    0.9513    0.3946 N   0  0  0  0  0  0  0  0  0  0  0  0
   -0.8792    1.0053   -0.8160 C   0  0  0  0  0  0  0  0  0  0  0  0
    0.5484    0.6848   -0.5753 C   0  0  0  0  0  0  0  0  0  0  0  0
    1.3657    0.4487   -1.6612 C   0  0  0  0  0  0  0  0  0  0  0  0
    2.6786    0.1534   -1.5037 N   0  0  0  0  0  0  0  0  0  0  0  0
    3.2860    0.0671   -0.3121 C   0  0  0  0  0  0  0  0  0  0  0  0
    2.4930    0.2995    0.8142 C   0  0  0  0  0  0  0  0  0  0  0  0
    1.1396    0.6039    0.6629 C   0  0  0  0  0  0  0  0  0  0  0  0
    3.3350    0.1590    1.8902 C   0  0  0  0  0  0  0  0  0  0  0  0
    4.6033   -0.1493    1.4558 C   0  0  0  0  0  0  0  0  0  0  0  0
    4.5447   -0.1989    0.1053 N   0  0  0  0  0  0  0  0  0  0  0  0
    5.6531   -0.4939   -0.7969 C   0  0  0  0  0  0  0  0  0  0  0  0
    5.1412   -0.7622   -2.1870 C   0  0  0  0  0  0  0  0  0  0  0  0
    6.3501   -1.7253   -0.2653 C   0  0  0  0  0  0  0  0  0  0  0  0
    6.6020    0.6825   -0.8730 C   0  0  0  0  0  0  0  0  0  0  0  0
    2.9365    0.3143    3.2559 C   0  0  0  0  0  0  0  0  0  0  0  0
    2.6259    0.4564    4.3599 N   0  0  0  0  0  0  0  0  0  0  0  0
   -0.6828    0.0000    0.0000 H   0  0  0  0  0  0  0  0  0  0  0  0
   -7.0788   -2.2084    1.6484 H   0  0  0  0  0  0  0  0  0  0  0  0
   -6.8171   -1.9153   -0.0747 H   0  0  0  0  0  0  0  0  0  0  0  0
   -5.3795   -2.0559    0.9951 H   0  0  0  0  0  0  0  0  0  0  0  0
   -7.6388   -0.1110    2.9405 H   0  0  0  0  0  0  0  0  0  0  0  0
   -6.0615    2.9563    0.4978 H   0  0  0  0  0  0  0  0  0  0  0  0
   -5.2656    1.5269   -1.5640 H   0  0  0  0  0  0  0  0  0  0  0  0
   -5.6410   -0.2267   -1.5448 H   0  0  0  0  0  0  0  0  0  0  0  0
   -3.7364   -0.7234   -0.1240 H   0  0  0  0  0  0  0  0  0  0  0  0
   -3.2305    0.0375   -1.6396 H   0  0  0  0  0  0  0  0  0  0  0  0
   -3.5489    1.3573    1.1430 H   0  0  0  0  0  0  0  0  0  0  0  0
   -3.1505    2.2584   -0.3590 H   0  0  0  0  0  0  0  0  0  0  0  0
   -1.6148    0.0262    0.8713 H   0  0  0  0  0  0  0  0  0  0  0  0
   -0.9854    2.0680   -1.1900 H   0  0  0  0  0  0  0  0  0  0  0  0
   -1.2343    0.3777   -1.6314 H   0  0  0  0  0  0  0  0  0  0  0  0
    0.9334    0.5058   -2.6513 H   0  0  0  0  0  0  0  0  0  0  0  0
    0.5327    0.7814    1.5367 H   0  0  0  0  0  0  0  0  0  0  0  0
    5.5005   -0.3255    2.0649 H   0  0  0  0  0  0  0  0  0  0  0  0
    4.7707    0.1592   -2.6853 H   0  0  0  0  0  0  0  0  0  0  0  0
    5.9713   -1.1734   -2.8063 H   0  0  0  0  0  0  0  0  0  0  0  0
    4.3297   -1.5110   -2.2061 H   0  0  0  0  0  0  0  0  0  0  0  0
    5.6715   -2.5918   -0.3287 H   0  0  0  0  0  0  0  0  0  0  0  0
    7.2940   -1.8891   -0.8302 H   0  0  0  0  0  0  0  0  0  0  0  0
    6.5677   -1.5189    0.8120 H   0  0  0  0  0  0  0  0  0  0  0  0
    6.0246    1.5436   -1.2554 H   0  0  0  0  0  0  0  0  0  0  0  0
    7.3801    0.4312   -1.6128 H   0  0  0  0  0  0  0  0  0  0  0  0
    7.0215    0.9386    0.1202 H   0  0  0  0  0  0  0  0  0  0  0  0
  2  3  1  0
  3  4  1  0
  4  5  1  0
  5  6  2  0
  6  7  1  0
  7  8  1  0
  8  9  1  0
  9 10  1  0
 10 11  1  0
 11 12  1  0
 12 13  1  0
 13 14  2  0
 14 15  1  0
 15 16  2  0
 16 17  1  0
 17 18  2  0
 17 19  1  0
 19 20  2  0
 20 21  1  0
 21 22  1  0
 22 23  1  0
 22 24  1  0
 22 25  1  0
 19 26  1  0
 26 27  3  0
  7  3  2  0
 18 13  1  0
 21 16  1  0
  1 28  1  0
  2 29  1  0
  2 30  1  0
  2 31  1  0
  4 32  1  0
  6 33  1  0
  8 34  1  0
  8 35  1  0
  9 36  1  0
  9 37  1  0
 10 38  1  0
 10 39  1  0
 11 40  1  0
 12 41  1  0
 12 42  1  0
 14 43  1  0
 18 44  1  0
 20 45  1  0
 23 46  1  0
 23 47  1  0
 23 48  1  0
 24 49  1  0
 24 50  1  0
 24 51  1  0
 25 52  1  0
 25 53  1  0
 25 54  1  0
M  END
>  <Unnamed: 0>  (217) 
1442

>  <ID>  (217) 
TRAIN_1442

>  <Canonical_Smiles>  (217) 
Cl.Cc1[nH]ncc1CCCNCc2cnc3c(c2)c(cn3C(C)(C)C)C#N

>  <Inhibition>  (217) 
59.74323

>  <TDC_conf_true_inhibitor>  (217) 
1

>  <TDC_conf_non_inhibitor>  (217) 
0

>  <split>  (217) 
1

$$$$
217
     RDKit          3D

 51 54  0  0  0  0  0  0  0  0999 V2000
    6.9688   -1.8716    1.7585 C   0  0  0  0  0  0  0  0  0  0  0  0
    6.7789   -0.5354    1.3140 O   0  0  0  0  0  0  0  0  0  0  0  0
    5.4856   -0.0653    1.2395 C   0  0  0  0  0  0  0  0  0  0  0  0
    4.3638   -0.7399    1.5393 C   0  0  0  0  0  0  0  0  0  0  0  0
    3.0832   -0.2467    1.4552 O   0  0  0  0  0  0  0  0  0  0  0  0
    2.8972    1.0517    1.0070 C   0  0  0  0  0  0  0  0  0  0  0  0
    3.9228    1.8561    0.6953 C   0  0  0  0  0  0  0  0  0  0  0  0
    5.3045    1.3451    0.7783 C   0  0  0  0  0  0  0  0  0  0  0  0
    6.2420    2.0744    0.4722 O   0  0  0  0  0  0  0  0  0  0  0  0
    1.4590    1.5119    0.9721 C   0  0  0  0  0  0  0  0  0  0  0  0
    0.6297    1.0610   -0.1398 N   0  0  0  0  0  0  0  0  0  0  0  0
    1.0483    1.4952   -1.4678 C   0  0  0  0  0  0  0  0  0  0  0  0
    0.2617    0.6036   -2.4375 C   0  0  2  0  0  0  0  0  0  0  0  0
   -0.9617    1.2553   -3.0778 C   0  0  0  0  0  0  0  0  0  0  0  0
   -2.0833    1.0311   -2.0793 C   0  0  0  0  0  0  0  0  0  0  0  0
   -1.7543   -0.2319   -1.4496 N   0  0  0  0  0  0  0  0  0  0  0  0
   -0.3239   -0.5231   -1.5708 C   0  0  2  0  0  0  0  0  0  0  0  0
    0.4167   -0.3879   -0.2349 C   0  0  0  0  0  0  0  0  0  0  0  0
   -2.6033   -1.1736   -0.9246 C   0  0  0  0  0  0  0  0  0  0  0  0
   -2.2128   -2.3226   -0.7076 O   0  0  0  0  0  0  0  0  0  0  0  0
   -3.9119   -0.7872   -0.6604 N   0  0  0  0  0  0  0  0  0  0  0  0
   -4.1524    0.4565    0.0860 C   0  0  0  0  0  0  0  0  0  0  0  0
   -5.4418    0.4090    0.9181 C   0  0  0  0  0  0  0  0  0  0  0  0
   -5.5005   -0.7211    1.7969 O   0  0  0  0  0  0  0  0  0  0  0  0
   -5.0185   -1.9417    1.2053 C   0  0  0  0  0  0  0  0  0  0  0  0
   -4.8486   -1.8599   -0.3149 C   0  0  0  0  0  0  0  0  0  0  0  0
    6.6021   -1.9993    2.7822 H   0  0  0  0  0  0  0  0  0  0  0  0
    8.0431   -2.0785    1.7570 H   0  0  0  0  0  0  0  0  0  0  0  0
    6.4873   -2.5830    1.0797 H   0  0  0  0  0  0  0  0  0  0  0  0
    4.3274   -1.7620    1.8880 H   0  0  0  0  0  0  0  0  0  0  0  0
    3.8004    2.8799    0.3678 H   0  0  0  0  0  0  0  0  0  0  0  0
    1.4283    2.6096    0.9908 H   0  0  0  0  0  0  0  0  0  0  0  0
    0.9791    1.2106    1.9126 H   0  0  0  0  0  0  0  0  0  0  0  0
    0.8534    2.5608   -1.6260 H   0  0  0  0  0  0  0  0  0  0  0  0
    2.1183    1.3196   -1.6306 H   0  0  0  0  0  0  0  0  0  0  0  0
    0.9411    0.2145   -3.2046 H   0  0  0  0  0  0  0  0  0  0  0  0
   -1.1994    0.7252   -4.0087 H   0  0  0  0  0  0  0  0  0  0  0  0
   -0.8209    2.3117   -3.3240 H   0  0  0  0  0  0  0  0  0  0  0  0
   -2.0743    1.8110   -1.3109 H   0  0  0  0  0  0  0  0  0  0  0  0
   -3.0629    0.9967   -2.5636 H   0  0  0  0  0  0  0  0  0  0  0  0
   -0.1883   -1.5136   -2.0189 H   0  0  0  0  0  0  0  0  0  0  0  0
    1.3633   -0.9354   -0.2997 H   0  0  0  0  0  0  0  0  0  0  0  0
   -0.1624   -0.7695    0.6117 H   0  0  0  0  0  0  0  0  0  0  0  0
   -4.2259    1.2858   -0.6211 H   0  0  0  0  0  0  0  0  0  0  0  0
   -3.2960    0.6275    0.7492 H   0  0  0  0  0  0  0  0  0  0  0  0
   -6.3242    0.3819    0.2676 H   0  0  0  0  0  0  0  0  0  0  0  0
   -5.5242    1.3121    1.5314 H   0  0  0  0  0  0  0  0  0  0  0  0
   -5.7269   -2.7344    1.4659 H   0  0  0  0  0  0  0  0  0  0  0  0
   -4.0633   -2.1790    1.6871 H   0  0  0  0  0  0  0  0  0  0  0  0
   -4.5206   -2.8219   -0.7222 H   0  0  0  0  0  0  0  0  0  0  0  0
   -5.8041   -1.6134   -0.7919 H   0  0  0  0  0  0  0  0  0  0  0  0
  1  2  1  0
  2  3  1  0
  3  4  2  0
  4  5  1  0
  5  6  1  0
  6  7  2  0
  7  8  1  0
  8  9  2  0
  6 10  1  0
 10 11  1  0
 11 12  1  0
 12 13  1  0
 13 14  1  0
 14 15  1  0
 15 16  1  0
 16 17  1  0
 17 18  1  0
 16 19  1  0
 19 20  2  0
 19 21  1  0
 21 22  1  0
 22 23  1  0
 23 24  1  0
 24 25  1  0
 25 26  1  0
  8  3  1  0
 18 11  1  0
 17 13  1  0
 26 21  1  0
  1 27  1  0
  1 28  1  0
  1 29  1  0
  4 30  1  0
  7 31  1  0
 10 32  1  0
 10 33  1  0
 12 34  1  0
 12 35  1  0
 13 36  1  6
 14 37  1  0
 14 38  1  0
 15 39  1  0
 15 40  1  0
 17 41  1  6
 18 42  1  0
 18 43  1  0
 22 44  1  0
 22 45  1  0
 23 46  1  0
 23 47  1  0
 25 48  1  0
 25 49  1  0
 26 50  1  0
 26 51  1  0
M  END
>  <Unnamed: 0>  (218) 
1450

>  <ID>  (218) 
TRAIN_1450

>  <Canonical_Smiles>  (218) 
COC1=COC(=CC1=O)CN2C[C@@H]3CCN([C@@H]3C2)C(=O)N4CCOCC4

>  <Inhibition>  (218) 
24.542286

>  <TDC_conf_true_inhibitor>  (218) 
0

>  <TDC_conf_non_inhibitor>  (218) 
1

>  <split>  (218) 
1

$$$$
218
     RDKit          3D

 44 47  0  0  0  0  0  0  0  0999 V2000
   -6.0205   -0.6917    0.6097 C   0  0  0  0  0  0  0  0  0  0  0  0
   -4.6605   -0.9630    1.0295 N   0  0  0  0  0  0  0  0  0  0  0  0
   -4.4309   -2.1351    1.8924 C   0  0  0  0  0  0  0  0  0  0  0  0
   -2.9971   -2.6634    1.7397 C   0  0  0  0  0  0  0  0  0  0  0  0
   -2.6866   -3.8380    1.8988 O   0  0  0  0  0  0  0  0  0  0  0  0
   -2.0881   -1.6632    1.4830 N   0  0  0  0  0  0  0  0  0  0  0  0
   -0.6892   -1.8553    1.1871 C   0  0  0  0  0  0  0  0  0  0  0  0
   -0.2519   -0.5031    0.6106 C   0  0  2  0  0  0  0  0  0  0  0  0
   -1.1802    0.5194    1.2972 C   0  0  0  0  0  0  0  0  0  0  0  0
   -2.4132   -0.2721    1.7372 C   0  0  1  0  0  0  0  0  0  0  0  0
   -3.7355    0.0918    1.0443 C   0  0  0  0  0  0  0  0  0  0  0  0
   -3.9926    1.2288    0.6614 O   0  0  0  0  0  0  0  0  0  0  0  0
   -0.3146   -0.4164   -0.8431 N   0  0  0  0  0  0  0  0  0  0  0  0
   -1.2903   -0.9606   -1.6418 C   0  0  0  0  0  0  0  0  0  0  0  0
   -0.8734   -0.7444   -2.9307 C   0  0  0  0  0  0  0  0  0  0  0  0
    0.3148   -0.0714   -2.9444 N   0  0  0  0  0  0  0  0  0  0  0  0
    0.6150    0.1718   -1.6817 C   0  0  0  0  0  0  0  0  0  0  0  0
    1.7888    0.9159   -1.3142 C   0  0  0  0  0  0  0  0  0  0  0  0
    3.0359    0.7891   -1.8985 C   0  0  0  0  0  0  0  0  0  0  0  0
    3.9935    1.6858   -1.3477 C   0  0  0  0  0  0  0  0  0  0  0  0
    3.4456    2.4911   -0.3762 C   0  0  0  0  0  0  0  0  0  0  0  0
    1.7806    2.1714   -0.1473 S   0  0  0  0  0  0  0  0  0  0  0  0
    5.3627    1.7679   -1.7463 C   0  0  0  0  0  0  0  0  0  0  0  0
    6.5131    1.8395   -2.0834 C   0  0  0  0  0  0  0  0  0  0  0  0
    7.9116    1.9288   -2.4975 C   0  0  0  0  0  0  0  0  0  0  0  0
    8.3397    3.2830   -2.4677 O   0  0  0  0  0  0  0  0  0  0  0  0
   -6.4442   -1.5916    0.1555 H   0  0  0  0  0  0  0  0  0  0  0  0
   -6.0496    0.1215   -0.1208 H   0  0  0  0  0  0  0  0  0  0  0  0
   -6.6087   -0.4049    1.4862 H   0  0  0  0  0  0  0  0  0  0  0  0
   -5.1179   -2.9310    1.5883 H   0  0  0  0  0  0  0  0  0  0  0  0
   -4.6105   -1.8537    2.9345 H   0  0  0  0  0  0  0  0  0  0  0  0
   -0.5409   -2.7133    0.5244 H   0  0  0  0  0  0  0  0  0  0  0  0
   -0.1826   -2.0553    2.1384 H   0  0  0  0  0  0  0  0  0  0  0  0
    0.7936   -0.3440    0.8912 H   0  0  0  0  0  0  0  0  0  0  0  0
   -1.4177    1.3795    0.6630 H   0  0  0  0  0  0  0  0  0  0  0  0
   -0.6755    0.9057    2.1919 H   0  0  0  0  0  0  0  0  0  0  0  0
   -2.5748   -0.1460    2.8157 H   0  0  0  0  0  0  0  0  0  0  0  0
   -2.1655   -1.4617   -1.2536 H   0  0  0  0  0  0  0  0  0  0  0  0
   -1.3645   -1.0422   -3.8481 H   0  0  0  0  0  0  0  0  0  0  0  0
    3.2399    0.0780   -2.6912 H   0  0  0  0  0  0  0  0  0  0  0  0
    3.9345    3.2642    0.2012 H   0  0  0  0  0  0  0  0  0  0  0  0
    8.0497    1.5452   -3.5129 H   0  0  0  0  0  0  0  0  0  0  0  0
    8.5565    1.3542   -1.8265 H   0  0  0  0  0  0  0  0  0  0  0  0
    7.7015    3.7889   -2.9991 H   0  0  0  0  0  0  0  0  0  0  0  0
  1  2  1  0
  2  3  1  0
  3  4  1  0
  4  5  2  0
  4  6  1  0
  6  7  1  0
  7  8  1  0
  8  9  1  0
  9 10  1  0
 10 11  1  0
 11 12  2  0
  8 13  1  0
 13 14  1  0
 14 15  2  0
 15 16  1  0
 16 17  2  0
 17 18  1  0
 18 19  2  0
 19 20  1  0
 20 21  2  0
 21 22  1  0
 20 23  1  0
 23 24  3  0
 24 25  1  0
 25 26  1  0
 11  2  1  0
 10  6  1  0
 17 13  1  0
 22 18  1  0
  1 27  1  0
  1 28  1  0
  1 29  1  0
  3 30  1  0
  3 31  1  0
  7 32  1  0
  7 33  1  0
  8 34  1  1
  9 35  1  0
  9 36  1  0
 10 37  1  1
 14 38  1  0
 15 39  1  0
 19 40  1  0
 21 41  1  0
 25 42  1  0
 25 43  1  0
 26 44  1  0
M  END
>  <Unnamed: 0>  (219) 
1457

>  <ID>  (219) 
TRAIN_1457

>  <Canonical_Smiles>  (219) 
CN1CC(=O)N2C[C@H](C[C@H]2C1=O)n3ccnc3c4cc(cs4)C#CCO

>  <Inhibition>  (219) 
39.960017

>  <TDC_conf_true_inhibitor>  (219) 
0

>  <TDC_conf_non_inhibitor>  (219) 
1

>  <split>  (219) 
1

$$$$
219
     RDKit          3D

 39 41  0  0  0  0  0  0  0  0999 V2000
    5.2552    1.9218   -0.1785 C   0  0  0  0  0  0  0  0  0  0  0  0
    3.9531    1.2127    0.0433 C   0  0  0  0  0  0  0  0  0  0  0  0
    3.2886    1.3324    1.2584 C   0  0  0  0  0  0  0  0  0  0  0  0
    2.0795    0.6607    1.4315 C   0  0  0  0  0  0  0  0  0  0  0  0
    1.5544   -0.1093    0.3975 C   0  0  0  0  0  0  0  0  0  0  0  0
    0.3705   -0.7257    0.6751 O   0  0  0  0  0  0  0  0  0  0  0  0
   -0.3153   -1.4166   -0.3917 C   0  0  1  0  0  0  0  0  0  0  0  0
    0.1792   -2.8727   -0.4878 C   0  0  0  0  0  0  0  0  0  0  0  0
   -0.6490   -3.8091    0.2178 O   0  0  0  0  0  0  0  0  0  0  0  0
   -1.0757   -3.3137    1.4813 C   0  0  0  0  0  0  0  0  0  0  0  0
   -2.0617   -2.1668    1.2875 C   0  0  0  0  0  0  0  0  0  0  0  0
   -1.8162   -1.4211   -0.0308 C   0  0  1  0  0  0  0  0  0  0  0  0
   -2.3689   -0.0662    0.0395 N   0  0  0  0  0  0  0  0  0  0  0  0
   -2.6153    0.6601   -1.1044 C   0  0  0  0  0  0  0  0  0  0  0  0
   -2.5048    0.1760   -2.2264 O   0  0  0  0  0  0  0  0  0  0  0  0
   -2.9837    2.0264   -0.9011 C   0  0  0  0  0  0  0  0  0  0  0  0
   -3.2321    2.8043    0.2082 C   0  0  0  0  0  0  0  0  0  0  0  0
   -3.5534    4.0752   -0.1775 N   0  0  0  0  0  0  0  0  0  0  0  0
   -3.5220    4.1212   -1.5015 N   0  0  0  0  0  0  0  0  0  0  0  0
   -3.1894    2.8973   -1.9366 N   0  0  0  0  0  0  0  0  0  0  0  0
    2.2908   -0.1759   -0.7764 C   0  0  0  0  0  0  0  0  0  0  0  0
    3.4698    0.4648   -0.9751 N   0  0  0  0  0  0  0  0  0  0  0  0
    5.6401    1.7244   -1.1841 H   0  0  0  0  0  0  0  0  0  0  0  0
    6.0007    1.5784    0.5455 H   0  0  0  0  0  0  0  0  0  0  0  0
    5.1203    3.0025   -0.0712 H   0  0  0  0  0  0  0  0  0  0  0  0
    3.6999    1.9362    2.0608 H   0  0  0  0  0  0  0  0  0  0  0  0
    1.5488    0.7413    2.3760 H   0  0  0  0  0  0  0  0  0  0  0  0
   -0.1682   -0.8881   -1.3401 H   0  0  0  0  0  0  0  0  0  0  0  0
    1.2044   -2.9818   -0.1185 H   0  0  0  0  0  0  0  0  0  0  0  0
    0.1664   -3.1916   -1.5353 H   0  0  0  0  0  0  0  0  0  0  0  0
   -0.2032   -3.0004    2.0669 H   0  0  0  0  0  0  0  0  0  0  0  0
   -1.5547   -4.1308    2.0302 H   0  0  0  0  0  0  0  0  0  0  0  0
   -3.0863   -2.5600    1.2738 H   0  0  0  0  0  0  0  0  0  0  0  0
   -2.0110   -1.5002    2.1572 H   0  0  0  0  0  0  0  0  0  0  0  0
   -2.3543   -1.9453   -0.8326 H   0  0  0  0  0  0  0  0  0  0  0  0
   -2.2109    0.4462    0.8962 H   0  0  0  0  0  0  0  0  0  0  0  0
   -3.2048    2.5340    1.2534 H   0  0  0  0  0  0  0  0  0  0  0  0
   -3.1182    2.7208   -2.9332 H   0  0  0  0  0  0  0  0  0  0  0  0
    1.9776   -0.7615   -1.6332 H   0  0  0  0  0  0  0  0  0  0  0  0
  1  2  1  0
  2  3  2  0
  3  4  1  0
  4  5  2  0
  5  6  1  0
  6  7  1  0
  7  8  1  0
  8  9  1  0
  9 10  1  0
 10 11  1  0
 11 12  1  0
 12 13  1  0
 13 14  1  0
 14 15  2  0
 14 16  1  0
 16 17  2  0
 17 18  1  0
 18 19  2  0
 19 20  1  0
  5 21  1  0
 21 22  2  0
 22  2  1  0
 12  7  1  0
 20 16  1  0
  1 23  1  0
  1 24  1  0
  1 25  1  0
  3 26  1  0
  4 27  1  0
  7 28  1  6
  8 29  1  0
  8 30  1  0
 10 31  1  0
 10 32  1  0
 11 33  1  0
 11 34  1  0
 12 35  1  6
 13 36  1  0
 17 37  1  0
 20 38  1  0
 21 39  1  0
M  END
>  <Unnamed: 0>  (220) 
1460

>  <ID>  (220) 
TRAIN_1460

>  <Canonical_Smiles>  (220) 
Cc1ccc(O[C@H]2COCC[C@H]2NC(=O)c3cnn[nH]3)cn1

>  <Inhibition>  (220) 
34.339449

>  <TDC_conf_true_inhibitor>  (220) 
1

>  <TDC_conf_non_inhibitor>  (220) 
0

>  <split>  (220) 
1

$$$$
220
     RDKit          3D

 41 44  0  0  0  0  0  0  0  0999 V2000
   -3.9309    2.2106   -2.7485 C   0  0  0  0  0  0  0  0  0  0  0  0
   -3.3177    1.8255   -1.5009 N   0  0  0  0  0  0  0  0  0  0  0  0
   -2.3736    0.8591   -1.3099 C   0  0  0  0  0  0  0  0  0  0  0  0
   -2.0916    0.8490    0.0449 C   0  0  0  0  0  0  0  0  0  0  0  0
   -2.9299    1.8621    0.5685 C   0  0  0  0  0  0  0  0  0  0  0  0
   -3.6779    2.4493   -0.3676 N   0  0  0  0  0  0  0  0  0  0  0  0
   -1.1418   -0.0072    0.8158 C   0  0  0  0  0  0  0  0  0  0  0  0
    0.1966    0.3031    0.3588 N   0  0  0  0  0  0  0  0  0  0  0  0
    1.2797    0.3112    1.2005 C   0  0  0  0  0  0  0  0  0  0  0  0
    1.1876    0.0830    2.4025 O   0  0  0  0  0  0  0  0  0  0  0  0
    2.5540    0.6006    0.5698 C   0  0  0  0  0  0  0  0  0  0  0  0
    2.8861    0.9086   -0.7421 C   0  0  0  0  0  0  0  0  0  0  0  0
    4.2987    1.0894   -0.7655 C   0  0  0  0  0  0  0  0  0  0  0  0
    5.5581    1.4726   -1.8902 S   0  0  0  0  0  0  0  0  0  0  0  0
    6.7177    1.3637   -0.6220 C   0  0  0  0  0  0  0  0  0  0  0  0
    6.1817    1.0500    0.6095 C   0  0  0  0  0  0  0  0  0  0  0  0
    4.7752    0.8969    0.4944 C   0  0  0  0  0  0  0  0  0  0  0  0
    3.7173    0.6016    1.3131 N   0  0  0  0  0  0  0  0  0  0  0  0
   -1.3652   -1.4929    0.5445 C   0  0  2  0  0  0  0  0  0  0  0  0
   -2.7142   -2.0875    1.0360 C   0  0  0  0  0  0  0  0  0  0  0  0
   -1.9473   -3.3842    1.3800 C   0  0  2  0  0  0  0  0  0  0  0  0
   -2.3595   -4.0633    2.5766 O   0  0  0  0  0  0  0  0  0  0  0  0
   -0.6805   -2.5076    1.5023 C   0  0  0  0  0  0  0  0  0  0  0  0
   -3.7144    3.2668   -2.9275 H   0  0  0  0  0  0  0  0  0  0  0  0
   -5.0083    2.0463   -2.6684 H   0  0  0  0  0  0  0  0  0  0  0  0
   -3.5199    1.6030   -3.5585 H   0  0  0  0  0  0  0  0  0  0  0  0
   -1.9921    0.2682   -2.1307 H   0  0  0  0  0  0  0  0  0  0  0  0
   -3.0240    2.1916    1.5961 H   0  0  0  0  0  0  0  0  0  0  0  0
   -1.2280    0.2071    1.8878 H   0  0  0  0  0  0  0  0  0  0  0  0
    0.3346    0.4689   -0.6252 H   0  0  0  0  0  0  0  0  0  0  0  0
    2.2227    1.0004   -1.5900 H   0  0  0  0  0  0  0  0  0  0  0  0
    7.7589    1.5411   -0.8548 H   0  0  0  0  0  0  0  0  0  0  0  0
    6.7597    0.9411    1.5179 H   0  0  0  0  0  0  0  0  0  0  0  0
    3.7906    0.4149    2.3065 H   0  0  0  0  0  0  0  0  0  0  0  0
   -1.1777   -1.7564   -0.5091 H   0  0  0  0  0  0  0  0  0  0  0  0
   -3.1487   -1.5853    1.9086 H   0  0  0  0  0  0  0  0  0  0  0  0
   -3.4857   -2.1894    0.2675 H   0  0  0  0  0  0  0  0  0  0  0  0
   -1.8957   -4.0852    0.5371 H   0  0  0  0  0  0  0  0  0  0  0  0
   -3.2348   -4.4327    2.3697 H   0  0  0  0  0  0  0  0  0  0  0  0
   -0.5006   -2.1371    2.5181 H   0  0  0  0  0  0  0  0  0  0  0  0
    0.2409   -2.9572    1.1217 H   0  0  0  0  0  0  0  0  0  0  0  0
  1  2  1  0
  2  3  1  0
  3  4  2  0
  4  5  1  0
  5  6  2  0
  4  7  1  0
  7  8  1  0
  8  9  1  0
  9 10  2  0
  9 11  1  0
 11 12  2  0
 12 13  1  0
 13 14  1  0
 14 15  1  0
 15 16  2  0
 16 17  1  0
 17 18  1  0
  7 19  1  0
 19 20  1  0
 20 21  1  0
 21 22  1  0
 21 23  1  0
  6  2  1  0
 18 11  1  0
 17 13  2  0
 23 19  1  0
  1 24  1  0
  1 25  1  0
  1 26  1  0
  3 27  1  0
  5 28  1  0
  7 29  1  0
  8 30  1  0
 12 31  1  0
 15 32  1  0
 16 33  1  0
 18 34  1  0
 19 35  1  6
 20 36  1  0
 20 37  1  0
 21 38  1  6
 22 39  1  0
 23 40  1  0
 23 41  1  0
M  END
>  <Unnamed: 0>  (221) 
1467

>  <ID>  (221) 
TRAIN_1467

>  <Canonical_Smiles>  (221) 
Cn1cc(cn1)C(NC(=O)c2cc3sccc3[nH]2)[C@@H]4C[C@H](O)C4

>  <Inhibition>  (221) 
43.638987

>  <TDC_conf_true_inhibitor>  (221) 
0

>  <TDC_conf_non_inhibitor>  (221) 
1

>  <split>  (221) 
1

$$$$
221
     RDKit          3D

 41 43  0  0  0  0  0  0  0  0999 V2000
   -4.2084    1.1111    0.5821 C   0  0  0  0  0  0  0  0  0  0  0  0
   -2.7247    1.4915    0.4067 C   0  0  0  0  0  0  0  0  0  0  0  0
   -2.6372    2.8633   -0.2945 C   0  0  0  0  0  0  0  0  0  0  0  0
   -2.0994    1.6420    1.8097 C   0  0  0  0  0  0  0  0  0  0  0  0
   -2.0113    0.4315   -0.4178 C   0  0  0  0  0  0  0  0  0  0  0  0
   -0.9844   -0.4660   -0.0275 C   0  0  0  0  0  0  0  0  0  0  0  0
   -0.6609   -1.1932   -1.1565 C   0  0  0  0  0  0  0  0  0  0  0  0
   -1.5512   -0.7657   -2.1043 N   0  0  0  0  0  0  0  0  0  0  0  0
   -2.3425    0.2384   -1.7016 N   0  0  0  0  0  0  0  0  0  0  0  0
    0.2906   -2.2339   -1.4129 C   0  0  0  0  0  0  0  0  0  0  0  0
    0.0594   -3.1036   -2.3593 N   0  0  0  0  0  0  0  0  0  0  0  0
    1.0895   -3.9882   -2.2683 N   0  0  0  0  0  0  0  0  0  0  0  0
    1.9771   -3.6092   -1.2669 C   0  0  0  0  0  0  0  0  0  0  0  0
    3.3896   -4.4387   -0.9932 S   0  0  0  0  0  0  0  0  0  0  0  0
    1.4455   -2.4584   -0.7043 N   0  0  0  0  0  0  0  0  0  0  0  0
    2.0945   -1.5987    0.2123 C   0  0  0  0  0  0  0  0  0  0  0  0
    2.6744   -2.1029    1.3831 C   0  0  0  0  0  0  0  0  0  0  0  0
    3.3149   -1.2515    2.2917 C   0  0  0  0  0  0  0  0  0  0  0  0
    3.3820    0.1218    2.0483 C   0  0  0  0  0  0  0  0  0  0  0  0
    4.2370    1.0976    3.1856 Cl  0  0  0  0  0  0  0  0  0  0  0  0
    2.7995    0.6359    0.8890 C   0  0  0  0  0  0  0  0  0  0  0  0
    2.1776   -0.2216   -0.0331 C   0  0  0  0  0  0  0  0  0  0  0  0
    2.8198    2.0654    0.5513 C   0  0  0  0  0  0  0  0  0  0  0  0
    3.1915    2.5365   -0.5055 O   0  0  0  0  0  0  0  0  0  0  0  0
    2.2532    2.8062    1.5165 O   0  0  0  0  0  0  0  0  0  0  0  0
   -4.3114    0.1380    1.0767 H   0  0  0  0  0  0  0  0  0  0  0  0
   -4.7237    1.0435   -0.3831 H   0  0  0  0  0  0  0  0  0  0  0  0
   -4.7400    1.8533    1.1885 H   0  0  0  0  0  0  0  0  0  0  0  0
   -3.1226    3.6454    0.3005 H   0  0  0  0  0  0  0  0  0  0  0  0
   -3.1255    2.8484   -1.2759 H   0  0  0  0  0  0  0  0  0  0  0  0
   -1.5935    3.1606   -0.4518 H   0  0  0  0  0  0  0  0  0  0  0  0
   -1.0398    1.9175    1.7480 H   0  0  0  0  0  0  0  0  0  0  0  0
   -2.1684    0.7097    2.3824 H   0  0  0  0  0  0  0  0  0  0  0  0
   -2.6092    2.4200    2.3898 H   0  0  0  0  0  0  0  0  0  0  0  0
   -0.5418   -0.5604    0.9540 H   0  0  0  0  0  0  0  0  0  0  0  0
   -1.6505   -1.1166   -3.0521 H   0  0  0  0  0  0  0  0  0  0  0  0
    1.1997   -4.7643   -2.9117 H   0  0  0  0  0  0  0  0  0  0  0  0
    2.6168   -3.1625    1.6251 H   0  0  0  0  0  0  0  0  0  0  0  0
    3.7632   -1.6731    3.1894 H   0  0  0  0  0  0  0  0  0  0  0  0
    1.7775    0.2050   -0.9521 H   0  0  0  0  0  0  0  0  0  0  0  0
    2.2932    3.7258    1.1789 H   0  0  0  0  0  0  0  0  0  0  0  0
  1  2  1  0
  2  3  1  0
  2  4  1  0
  2  5  1  0
  5  6  1  0
  6  7  2  0
  7  8  1  0
  8  9  1  0
  7 10  1  0
 10 11  2  0
 11 12  1  0
 12 13  1  0
 13 14  2  0
 13 15  1  0
 15 16  1  0
 16 17  2  0
 17 18  1  0
 18 19  2  0
 19 20  1  0
 19 21  1  0
 21 22  2  0
 21 23  1  0
 23 24  2  0
 23 25  1  0
  9  5  2  0
 15 10  1  0
 22 16  1  0
  1 26  1  0
  1 27  1  0
  1 28  1  0
  3 29  1  0
  3 30  1  0
  3 31  1  0
  4 32  1  0
  4 33  1  0
  4 34  1  0
  6 35  1  0
  8 36  1  0
 12 37  1  0
 17 38  1  0
 18 39  1  0
 22 40  1  0
 25 41  1  0
M  END
>  <Unnamed: 0>  (222) 
1472

>  <ID>  (222) 
TRAIN_1472

>  <Canonical_Smiles>  (222) 
CC(C)(C)c1cc([nH]n1)C2=NNC(=S)N2c3ccc(Cl)c(c3)C(=O)O

>  <Inhibition>  (222) 
49.965243

>  <TDC_conf_true_inhibitor>  (222) 
0

>  <TDC_conf_non_inhibitor>  (222) 
1

>  <split>  (222) 
1

$$$$
222
     RDKit          3D

 33 34  0  0  0  0  0  0  0  0999 V2000
    1.5168   -1.0136    1.6839 C   0  0  0  0  0  0  0  0  0  0  0  0
    1.7694   -0.9615    0.2490 N   0  0  0  0  0  0  0  0  0  0  0  0
    2.6784   -1.9695   -0.2998 C   0  0  0  0  0  0  0  0  0  0  0  0
    4.0905   -1.7182    0.0447 C   0  0  0  0  0  0  0  0  0  0  0  0
    5.1985   -1.5490    0.3503 N   0  0  0  0  0  0  0  0  0  0  0  0
    1.4835    0.1327   -0.5589 C   0  0  0  0  0  0  0  0  0  0  0  0
    1.8917    0.2303   -1.7161 O   0  0  0  0  0  0  0  0  0  0  0  0
    0.6379    1.2227    0.0184 C   0  0  0  0  0  0  0  0  0  0  0  0
   -0.7112    1.1371    0.0150 C   0  0  0  0  0  0  0  0  0  0  0  0
   -1.5832    2.0735    0.5441 O   0  0  0  0  0  0  0  0  0  0  0  0
   -1.0154    3.0860    1.3789 C   0  0  0  0  0  0  0  0  0  0  0  0
    0.1742    3.7738    0.7337 C   0  0  0  0  0  0  0  0  0  0  0  0
    1.5328    2.5800    0.6304 S   0  0  0  0  0  0  0  0  0  0  0  0
   -1.4358   -0.0150   -0.5598 C   0  0  0  0  0  0  0  0  0  0  0  0
   -1.3566   -0.3210   -1.9251 C   0  0  0  0  0  0  0  0  0  0  0  0
   -2.0478   -1.4169   -2.4464 C   0  0  0  0  0  0  0  0  0  0  0  0
   -2.8324   -2.2097   -1.6108 C   0  0  0  0  0  0  0  0  0  0  0  0
   -2.9314   -1.9058   -0.2544 C   0  0  0  0  0  0  0  0  0  0  0  0
   -2.2394   -0.8113    0.2685 C   0  0  0  0  0  0  0  0  0  0  0  0
    1.2892   -2.0444    1.9709 H   0  0  0  0  0  0  0  0  0  0  0  0
    0.6775   -0.3830    1.9806 H   0  0  0  0  0  0  0  0  0  0  0  0
    2.4126   -0.6741    2.2121 H   0  0  0  0  0  0  0  0  0  0  0  0
    2.3649   -2.9466    0.0852 H   0  0  0  0  0  0  0  0  0  0  0  0
    2.5719   -2.0169   -1.3893 H   0  0  0  0  0  0  0  0  0  0  0  0
   -0.7709    2.6548    2.3583 H   0  0  0  0  0  0  0  0  0  0  0  0
   -1.8048    3.8261    1.5502 H   0  0  0  0  0  0  0  0  0  0  0  0
   -0.0702    4.1210   -0.2755 H   0  0  0  0  0  0  0  0  0  0  0  0
    0.5003    4.6291    1.3321 H   0  0  0  0  0  0  0  0  0  0  0  0
   -0.7554    0.2912   -2.5955 H   0  0  0  0  0  0  0  0  0  0  0  0
   -1.9755   -1.6470   -3.5065 H   0  0  0  0  0  0  0  0  0  0  0  0
   -3.3734   -3.0594   -2.0194 H   0  0  0  0  0  0  0  0  0  0  0  0
   -3.5527   -2.5166    0.3954 H   0  0  0  0  0  0  0  0  0  0  0  0
   -2.3339   -0.5788    1.3266 H   0  0  0  0  0  0  0  0  0  0  0  0
  1  2  1  0
  2  3  1  0
  3  4  1  0
  4  5  3  0
  2  6  1  0
  6  7  2  0
  6  8  1  0
  8  9  2  0
  9 10  1  0
 10 11  1  0
 11 12  1  0
 12 13  1  0
  9 14  1  0
 14 15  2  0
 15 16  1  0
 16 17  2  0
 17 18  1  0
 18 19  2  0
 13  8  1  0
 19 14  1  0
  1 20  1  0
  1 21  1  0
  1 22  1  0
  3 23  1  0
  3 24  1  0
 11 25  1  0
 11 26  1  0
 12 27  1  0
 12 28  1  0
 15 29  1  0
 16 30  1  0
 17 31  1  0
 18 32  1  0
 19 33  1  0
M  END
>  <Unnamed: 0>  (223) 
1474

>  <ID>  (223) 
TRAIN_1474

>  <Canonical_Smiles>  (223) 
CN(CC#N)C(=O)C1=C(OCCS1)c2ccccc2

>  <Inhibition>  (223) 
45.053238

>  <TDC_conf_true_inhibitor>  (223) 
0

>  <TDC_conf_non_inhibitor>  (223) 
1

>  <split>  (223) 
1

$$$$
223
     RDKit          3D

 36 38  0  0  0  0  0  0  0  0999 V2000
   -1.0793    0.5812    2.3925 C   0  0  0  0  0  0  0  0  0  0  0  0
   -1.3539   -0.4904    1.3054 C   0  0  0  0  0  0  0  0  0  0  0  0
   -1.6579   -1.8050    2.0653 C   0  0  0  0  0  0  0  0  0  0  0  0
   -2.5131    0.0094    0.4162 C   0  0  0  0  0  0  0  0  0  0  0  0
   -3.7626   -0.6334    0.3636 C   0  0  0  0  0  0  0  0  0  0  0  0
   -4.7927   -0.1453   -0.4471 C   0  0  0  0  0  0  0  0  0  0  0  0
   -4.5979    0.9941   -1.2212 C   0  0  0  0  0  0  0  0  0  0  0  0
   -3.3719    1.6489   -1.1873 C   0  0  0  0  0  0  0  0  0  0  0  0
   -2.3421    1.1635   -0.3781 C   0  0  0  0  0  0  0  0  0  0  0  0
   -0.1629   -0.7211    0.4615 N   0  0  0  0  0  0  0  0  0  0  0  0
   -0.0859   -1.7595   -0.3964 N   0  0  0  0  0  0  0  0  0  0  0  0
    1.1048   -1.6470   -0.9644 N   0  0  0  0  0  0  0  0  0  0  0  0
    1.7065   -0.5357   -0.4221 C   0  0  0  0  0  0  0  0  0  0  0  0
    0.9322    0.0735    0.4934 N   0  0  0  0  0  0  0  0  0  0  0  0
    3.0384   -0.0891   -0.8099 C   0  0  0  0  0  0  0  0  0  0  0  0
    3.7671   -0.7882   -1.7838 C   0  0  0  0  0  0  0  0  0  0  0  0
    5.0446   -0.3629   -2.1586 C   0  0  0  0  0  0  0  0  0  0  0  0
    5.6071    0.7651   -1.5644 C   0  0  0  0  0  0  0  0  0  0  0  0
    4.8949    1.4694   -0.5957 C   0  0  0  0  0  0  0  0  0  0  0  0
    3.6175    1.0449   -0.2204 C   0  0  0  0  0  0  0  0  0  0  0  0
   -1.9691    0.7507    3.0111 H   0  0  0  0  0  0  0  0  0  0  0  0
   -0.7947    1.5502    1.9661 H   0  0  0  0  0  0  0  0  0  0  0  0
   -0.2652    0.2714    3.0590 H   0  0  0  0  0  0  0  0  0  0  0  0
   -2.4896   -1.6812    2.7689 H   0  0  0  0  0  0  0  0  0  0  0  0
   -0.7863   -2.1339    2.6449 H   0  0  0  0  0  0  0  0  0  0  0  0
   -1.9177   -2.6255    1.3858 H   0  0  0  0  0  0  0  0  0  0  0  0
   -3.9686   -1.5284    0.9447 H   0  0  0  0  0  0  0  0  0  0  0  0
   -5.7496   -0.6611   -0.4755 H   0  0  0  0  0  0  0  0  0  0  0  0
   -5.3990    1.3685   -1.8527 H   0  0  0  0  0  0  0  0  0  0  0  0
   -3.2123    2.5368   -1.7939 H   0  0  0  0  0  0  0  0  0  0  0  0
   -1.3934    1.6998   -0.3817 H   0  0  0  0  0  0  0  0  0  0  0  0
    3.3458   -1.6714   -2.2607 H   0  0  0  0  0  0  0  0  0  0  0  0
    5.5987   -0.9133   -2.9148 H   0  0  0  0  0  0  0  0  0  0  0  0
    6.6007    1.0953   -1.8565 H   0  0  0  0  0  0  0  0  0  0  0  0
    5.3319    2.3495   -0.1310 H   0  0  0  0  0  0  0  0  0  0  0  0
    3.0756    1.6070    0.5379 H   0  0  0  0  0  0  0  0  0  0  0  0
  1  2  1  0
  2  3  1  0
  2  4  1  0
  4  5  2  0
  5  6  1  0
  6  7  2  0
  7  8  1  0
  8  9  2  0
  2 10  1  0
 10 11  1  0
 11 12  2  0
 12 13  1  0
 13 14  2  0
 13 15  1  0
 15 16  2  0
 16 17  1  0
 17 18  2  0
 18 19  1  0
 19 20  2  0
  9  4  1  0
 14 10  1  0
 20 15  1  0
  1 21  1  0
  1 22  1  0
  1 23  1  0
  3 24  1  0
  3 25  1  0
  3 26  1  0
  5 27  1  0
  6 28  1  0
  7 29  1  0
  8 30  1  0
  9 31  1  0
 16 32  1  0
 17 33  1  0
 18 34  1  0
 19 35  1  0
 20 36  1  0
M  END
>  <Unnamed: 0>  (224) 
1477

>  <ID>  (224) 
TRAIN_1477

>  <Canonical_Smiles>  (224) 
CC(C)(c1ccccc1)n2nnc(n2)c3ccccc3

>  <Inhibition>  (224) 
34.899396

>  <TDC_conf_true_inhibitor>  (224) 
0

>  <TDC_conf_non_inhibitor>  (224) 
1

>  <split>  (224) 
1

$$$$
224
     RDKit          3D

 40 42  0  0  0  0  0  0  0  0999 V2000
    5.4062   -0.2307   -1.8683 C   0  0  0  0  0  0  0  0  0  0  0  0
    4.4199    0.7250   -1.2026 C   0  0  0  0  0  0  0  0  0  0  0  0
    4.9142    2.1636   -1.3268 C   0  0  0  0  0  0  0  0  0  0  0  0
    4.3439    0.3510    0.1768 O   0  0  0  0  0  0  0  0  0  0  0  0
    3.2188    0.6727    0.8172 C   0  0  0  0  0  0  0  0  0  0  0  0
    2.1884    1.2807    0.2654 N   0  0  0  0  0  0  0  0  0  0  0  0
    1.1749    1.5005    1.1736 N   0  0  0  0  0  0  0  0  0  0  0  0
    1.4640    1.0181    2.3648 C   0  0  0  0  0  0  0  0  0  0  0  0
    0.3505    1.0861    3.7084 S   0  0  0  0  0  0  0  0  0  0  0  0
   -1.1149    1.8362    2.9411 C   0  0  0  0  0  0  0  0  0  0  0  0
   -1.8537    0.8859    2.0578 C   0  0  0  0  0  0  0  0  0  0  0  0
   -2.9450    0.2022    2.3589 N   0  0  0  0  0  0  0  0  0  0  0  0
   -3.2449   -0.5240    1.2295 C   0  0  0  0  0  0  0  0  0  0  0  0
   -4.3294   -1.4510    0.9949 C   0  0  0  0  0  0  0  0  0  0  0  0
   -5.2026   -1.6838    1.8271 O   0  0  0  0  0  0  0  0  0  0  0  0
   -4.2831   -2.0402   -0.2829 N   0  0  0  0  0  0  0  0  0  0  0  0
   -5.3380   -2.9791   -0.6090 C   0  0  0  0  0  0  0  0  0  0  0  0
   -3.3693   -1.7365   -1.3159 C   0  0  0  0  0  0  0  0  0  0  0  0
   -3.4755   -2.2415   -2.4370 O   0  0  0  0  0  0  0  0  0  0  0  0
   -2.3366   -0.8310   -1.0161 N   0  0  0  0  0  0  0  0  0  0  0  0
   -1.3522   -0.4945   -2.0321 C   0  0  0  0  0  0  0  0  0  0  0  0
   -2.3374   -0.2709    0.2409 C   0  0  0  0  0  0  0  0  0  0  0  0
   -1.4634    0.6356    0.7569 N   0  0  0  0  0  0  0  0  0  0  0  0
    3.0138    0.2984    2.4757 S   0  0  0  0  0  0  0  0  0  0  0  0
    6.3904   -0.1774   -1.3896 H   0  0  0  0  0  0  0  0  0  0  0  0
    5.0616   -1.2654   -1.7652 H   0  0  0  0  0  0  0  0  0  0  0  0
    5.5212   -0.0066   -2.9332 H   0  0  0  0  0  0  0  0  0  0  0  0
    3.4510    0.6059   -1.7045 H   0  0  0  0  0  0  0  0  0  0  0  0
    5.8723    2.2935   -0.8116 H   0  0  0  0  0  0  0  0  0  0  0  0
    4.2111    2.8616   -0.8612 H   0  0  0  0  0  0  0  0  0  0  0  0
    5.0380    2.4506   -2.3755 H   0  0  0  0  0  0  0  0  0  0  0  0
   -1.7813    2.1503    3.7518 H   0  0  0  0  0  0  0  0  0  0  0  0
   -0.8381    2.7449    2.3954 H   0  0  0  0  0  0  0  0  0  0  0  0
   -6.1089   -2.4466   -1.1750 H   0  0  0  0  0  0  0  0  0  0  0  0
   -4.9483   -3.7928   -1.2287 H   0  0  0  0  0  0  0  0  0  0  0  0
   -5.7900   -3.4131    0.2874 H   0  0  0  0  0  0  0  0  0  0  0  0
   -1.4800    0.5560   -2.3110 H   0  0  0  0  0  0  0  0  0  0  0  0
   -1.4594   -1.1120   -2.9274 H   0  0  0  0  0  0  0  0  0  0  0  0
   -0.3481   -0.6462   -1.6233 H   0  0  0  0  0  0  0  0  0  0  0  0
   -0.6403    1.0244    0.3099 H   0  0  0  0  0  0  0  0  0  0  0  0
  1  2  1  0
  2  3  1  0
  2  4  1  0
  4  5  1  0
  5  6  2  0
  6  7  1  0
  7  8  2  0
  8  9  1  0
  9 10  1  0
 10 11  1  0
 11 12  2  0
 12 13  1  0
 13 14  1  0
 14 15  2  0
 14 16  1  0
 16 17  1  0
 16 18  1  0
 18 19  2  0
 18 20  1  0
 20 21  1  0
 20 22  1  0
 22 23  1  0
  8 24  1  0
 24  5  1  0
 23 11  1  0
 22 13  2  0
  1 25  1  0
  1 26  1  0
  1 27  1  0
  2 28  1  0
  3 29  1  0
  3 30  1  0
  3 31  1  0
 10 32  1  0
 10 33  1  0
 17 34  1  0
 17 35  1  0
 17 36  1  0
 21 37  1  0
 21 38  1  0
 21 39  1  0
 23 40  1  0
M  END
>  <Unnamed: 0>  (225) 
1487

>  <ID>  (225) 
TRAIN_1487

>  <Canonical_Smiles>  (225) 
CC(C)Oc1nnc(SCc2nc3C(=O)N(C)C(=O)N(C)c3[nH]2)s1

>  <Inhibition>  (225) 
39.352129

>  <TDC_conf_true_inhibitor>  (225) 
0

>  <TDC_conf_non_inhibitor>  (225) 
1

>  <split>  (225) 
1

$$$$
225
     RDKit          3D

 31 31  0  0  0  0  0  0  0  0999 V2000
   -4.5518    0.9246   -1.8101 C   0  0  0  0  0  0  0  0  0  0  0  0
   -4.5331    0.7338   -0.2998 C   0  0  0  0  0  0  0  0  0  0  0  0
   -3.1158    0.6194    0.2569 C   0  0  0  0  0  0  0  0  0  0  0  0
   -2.4397   -0.7068   -0.0636 C   0  0  0  0  0  0  0  0  0  0  0  0
   -3.0618   -1.6818   -0.4882 O   0  0  0  0  0  0  0  0  0  0  0  0
   -0.9516   -0.7935    0.2014 C   0  0  0  0  0  0  0  0  0  0  0  0
   -0.0426   -0.1060   -1.2129 S   0  0  0  0  0  0  0  0  0  0  0  0
    1.5824   -0.4058   -0.7019 C   0  0  0  0  0  0  0  0  0  0  0  0
    2.2975    0.3576    0.1521 C   0  0  0  0  0  0  0  0  0  0  0  0
    1.7414    1.5281    0.7556 C   0  0  0  0  0  0  0  0  0  0  0  0
    1.2814    2.4616    1.2699 N   0  0  0  0  0  0  0  0  0  0  0  0
    3.6776   -0.0402    0.4711 C   0  0  0  0  0  0  0  0  0  0  0  0
    4.2069   -1.1414   -0.0945 C   0  0  0  0  0  0  0  0  0  0  0  0
    3.4115   -1.9607   -1.0396 C   0  0  0  0  0  0  0  0  0  0  0  0
    3.8810   -2.9632   -1.5608 O   0  0  0  0  0  0  0  0  0  0  0  0
    2.1377   -1.5205   -1.2728 N   0  0  0  0  0  0  0  0  0  0  0  0
    4.4832    0.7942    1.4294 C   0  0  0  0  0  0  0  0  0  0  0  0
   -4.0091    1.8316   -2.0966 H   0  0  0  0  0  0  0  0  0  0  0  0
   -5.5833    1.0225   -2.1641 H   0  0  0  0  0  0  0  0  0  0  0  0
   -4.0977    0.0749   -2.3288 H   0  0  0  0  0  0  0  0  0  0  0  0
   -5.1244   -0.1508   -0.0363 H   0  0  0  0  0  0  0  0  0  0  0  0
   -5.0250    1.5969    0.1641 H   0  0  0  0  0  0  0  0  0  0  0  0
   -2.5001    1.4416   -0.1230 H   0  0  0  0  0  0  0  0  0  0  0  0
   -3.1513    0.7004    1.3494 H   0  0  0  0  0  0  0  0  0  0  0  0
   -0.7198   -0.2576    1.1267 H   0  0  0  0  0  0  0  0  0  0  0  0
   -0.6847   -1.8460    0.3433 H   0  0  0  0  0  0  0  0  0  0  0  0
    5.2159   -1.4869    0.0970 H   0  0  0  0  0  0  0  0  0  0  0  0
    1.5845   -2.0597   -1.9289 H   0  0  0  0  0  0  0  0  0  0  0  0
    3.9985    0.8370    2.4110 H   0  0  0  0  0  0  0  0  0  0  0  0
    4.6048    1.8143    1.0496 H   0  0  0  0  0  0  0  0  0  0  0  0
    5.4873    0.3824    1.5817 H   0  0  0  0  0  0  0  0  0  0  0  0
  1  2  1  0
  2  3  1  0
  3  4  1  0
  4  5  2  0
  4  6  1  0
  6  7  1  0
  7  8  1  0
  8  9  2  0
  9 10  1  0
 10 11  3  0
  9 12  1  0
 12 13  2  0
 13 14  1  0
 14 15  2  0
 14 16  1  0
 12 17  1  0
 16  8  1  0
  1 18  1  0
  1 19  1  0
  1 20  1  0
  2 21  1  0
  2 22  1  0
  3 23  1  0
  3 24  1  0
  6 25  1  0
  6 26  1  0
 13 27  1  0
 16 28  1  0
 17 29  1  0
 17 30  1  0
 17 31  1  0
M  END
>  <Unnamed: 0>  (226) 
1489

>  <ID>  (226) 
TRAIN_1489

>  <Canonical_Smiles>  (226) 
CCCC(=O)CSC1=C(C#N)C(=CC(=O)N1)C

>  <Inhibition>  (226) 
44.224823

>  <TDC_conf_true_inhibitor>  (226) 
0

>  <TDC_conf_non_inhibitor>  (226) 
1

>  <split>  (226) 
1

$$$$
226
     RDKit          3D

 40 41  0  0  0  0  0  0  0  0999 V2000
   -4.8649    1.1788    0.2813 C   0  0  0  0  0  0  0  0  0  0  0  0
   -4.0792    0.0846    0.7378 O   0  0  0  0  0  0  0  0  0  0  0  0
   -2.7765    0.0364    0.1164 C   0  0  2  0  0  0  0  0  0  0  0  0
   -2.8497   -0.7391   -1.2157 C   0  0  0  0  0  0  0  0  0  0  0  0
   -2.5129   -2.1309   -1.1020 O   0  0  0  0  0  0  0  0  0  0  0  0
   -3.0112   -2.7075    0.0996 C   0  0  0  0  0  0  0  0  0  0  0  0
   -2.2791   -2.1360    1.3103 C   0  0  0  0  0  0  0  0  0  0  0  0
   -1.8233   -0.6842    1.0901 C   0  0  1  0  0  0  0  0  0  0  0  0
   -0.4313   -0.6298    0.6397 N   0  0  0  0  0  0  0  0  0  0  0  0
    0.3233    0.5146    0.6879 C   0  0  0  0  0  0  0  0  0  0  0  0
   -0.1350    1.5785    1.0944 O   0  0  0  0  0  0  0  0  0  0  0  0
    1.7466    0.3764    0.2251 C   0  0  0  0  0  0  0  0  0  0  0  0
    2.4410    1.4292   -0.2836 C   0  0  0  0  0  0  0  0  0  0  0  0
    1.8142    2.7729   -0.5886 C   0  0  0  0  0  0  0  0  0  0  0  0
    3.8757    1.2839   -0.5976 C   0  0  0  0  0  0  0  0  0  0  0  0
    4.4898    0.0899   -0.4663 C   0  0  0  0  0  0  0  0  0  0  0  0
    5.9363   -0.2125   -0.7522 C   0  0  0  0  0  0  0  0  0  0  0  0
    3.7603   -0.9889   -0.0230 N   0  0  0  0  0  0  0  0  0  0  0  0
    2.4397   -0.9474    0.3324 C   0  0  0  0  0  0  0  0  0  0  0  0
    1.8657   -1.9703    0.6977 O   0  0  0  0  0  0  0  0  0  0  0  0
    4.7821    2.6850   -1.0876 Cl  0  0  0  0  0  0  0  0  0  0  0  0
   -5.8452    1.1198    0.7618 H   0  0  0  0  0  0  0  0  0  0  0  0
   -4.3965    2.1261    0.5655 H   0  0  0  0  0  0  0  0  0  0  0  0
   -5.0053    1.1393   -0.8024 H   0  0  0  0  0  0  0  0  0  0  0  0
   -2.4408    1.0630   -0.0723 H   0  0  0  0  0  0  0  0  0  0  0  0
   -2.1310   -0.3144   -1.9246 H   0  0  0  0  0  0  0  0  0  0  0  0
   -3.8431   -0.6731   -1.6707 H   0  0  0  0  0  0  0  0  0  0  0  0
   -4.0931   -2.5416    0.1656 H   0  0  0  0  0  0  0  0  0  0  0  0
   -2.8582   -3.7906    0.0500 H   0  0  0  0  0  0  0  0  0  0  0  0
   -2.9505   -2.1958    2.1759 H   0  0  0  0  0  0  0  0  0  0  0  0
   -1.4176   -2.7703    1.5539 H   0  0  0  0  0  0  0  0  0  0  0  0
   -1.8545   -0.1748    2.0622 H   0  0  0  0  0  0  0  0  0  0  0  0
    0.0298   -1.5073    0.4007 H   0  0  0  0  0  0  0  0  0  0  0  0
    2.1534    3.1613   -1.5556 H   0  0  0  0  0  0  0  0  0  0  0  0
    2.0624    3.4997    0.1916 H   0  0  0  0  0  0  0  0  0  0  0  0
    0.7276    2.7315   -0.6941 H   0  0  0  0  0  0  0  0  0  0  0  0
    6.4434   -0.5226    0.1680 H   0  0  0  0  0  0  0  0  0  0  0  0
    6.0126   -1.0315   -1.4763 H   0  0  0  0  0  0  0  0  0  0  0  0
    6.4933    0.6313   -1.1659 H   0  0  0  0  0  0  0  0  0  0  0  0
    4.2020   -1.8969    0.0706 H   0  0  0  0  0  0  0  0  0  0  0  0
  1  2  1  0
  2  3  1  0
  3  4  1  0
  4  5  1  0
  5  6  1  0
  6  7  1  0
  7  8  1  0
  8  9  1  0
  9 10  1  0
 10 11  2  0
 10 12  1  0
 12 13  2  0
 13 14  1  0
 13 15  1  0
 15 16  2  0
 16 17  1  0
 16 18  1  0
 18 19  1  0
 19 20  2  0
 15 21  1  0
  8  3  1  0
 19 12  1  0
  1 22  1  0
  1 23  1  0
  1 24  1  0
  3 25  1  6
  4 26  1  0
  4 27  1  0
  6 28  1  0
  6 29  1  0
  7 30  1  0
  7 31  1  0
  8 32  1  1
  9 33  1  0
 14 34  1  0
 14 35  1  0
 14 36  1  0
 17 37  1  0
 17 38  1  0
 17 39  1  0
 18 40  1  0
M  END
>  <Unnamed: 0>  (227) 
1496

>  <ID>  (227) 
TRAIN_1496

>  <Canonical_Smiles>  (227) 
CO[C@@H]1COCC[C@H]1NC(=O)C2=C(C)C(=C(C)NC2=O)Cl

>  <Inhibition>  (227) 
41.086624

>  <TDC_conf_true_inhibitor>  (227) 
0

>  <TDC_conf_non_inhibitor>  (227) 
1

>  <split>  (227) 
1

$$$$
227
     RDKit          3D

 55 58  0  0  0  0  0  0  0  0999 V2000
   -6.8772    1.1821   -0.2487 C   0  0  0  0  0  0  0  0  0  0  0  0
   -5.4662    1.1875   -0.6355 N   0  0  0  0  0  0  0  0  0  0  0  0
   -5.0813   -0.1203   -1.1844 C   0  0  0  0  0  0  0  0  0  0  0  0
   -3.6393   -0.0995   -1.6796 C   0  0  0  0  0  0  0  0  0  0  0  0
   -2.6197    0.3706   -0.6282 C   0  0  0  0  0  0  0  0  0  0  0  0
   -3.1435    1.6133    0.1123 C   0  0  0  0  0  0  0  0  0  0  0  0
   -4.6192    1.5382    0.5093 C   0  0  0  0  0  0  0  0  0  0  0  0
   -2.1404   -0.7540    0.1929 N   0  0  0  0  0  0  0  0  0  0  0  0
   -2.8886   -1.1423    1.3767 C   0  0  0  0  0  0  0  0  0  0  0  0
   -1.9711   -2.1841    1.9891 C   0  0  0  0  0  0  0  0  0  0  0  0
   -0.5837   -1.5924    1.7958 C   0  0  0  0  0  0  0  0  0  0  0  0
   -0.7222   -0.6350    0.6071 C   0  0  1  0  0  0  0  0  0  0  0  0
    0.2471   -1.0304   -0.5330 C   0  0  0  0  0  0  0  0  0  0  0  0
   -0.1126   -1.6422   -1.5408 O   0  0  0  0  0  0  0  0  0  0  0  0
    1.5717   -0.6770   -0.3666 N   0  0  0  0  0  0  0  0  0  0  0  0
    2.1476    0.0943    0.7354 C   0  0  0  0  0  0  0  0  0  0  0  0
    3.5853    0.1810    0.3416 C   0  0  0  0  0  0  0  0  0  0  0  0
    3.7857   -0.4345   -0.8191 C   0  0  0  0  0  0  0  0  0  0  0  0
    2.5594   -1.0216   -1.3871 C   0  0  0  0  0  0  0  0  0  0  0  0
    5.1230   -0.4695   -1.3871 C   0  0  0  0  0  0  0  0  0  0  0  0
    5.3276   -1.0398   -2.4530 O   0  0  0  0  0  0  0  0  0  0  0  0
    6.0822    0.1828   -0.6174 N   0  0  0  0  0  0  0  0  0  0  0  0
    7.4478    0.1953   -1.1181 C   0  0  0  0  0  0  0  0  0  0  0  0
    5.7424    0.7869    0.5886 C   0  0  0  0  0  0  0  0  0  0  0  0
    4.5397    0.8055    1.0825 N   0  0  0  0  0  0  0  0  0  0  0  0
    6.8372    1.4683    1.3762 C   0  0  0  0  0  0  0  0  0  0  0  0
   -7.5127    0.9661   -1.1147 H   0  0  0  0  0  0  0  0  0  0  0  0
   -7.0910    0.4407    0.5298 H   0  0  0  0  0  0  0  0  0  0  0  0
   -7.1780    2.1682    0.1221 H   0  0  0  0  0  0  0  0  0  0  0  0
   -5.7246   -0.3598   -2.0406 H   0  0  0  0  0  0  0  0  0  0  0  0
   -5.2281   -0.9193   -0.4495 H   0  0  0  0  0  0  0  0  0  0  0  0
   -3.3657   -1.0885   -2.0685 H   0  0  0  0  0  0  0  0  0  0  0  0
   -3.5812    0.5819   -2.5403 H   0  0  0  0  0  0  0  0  0  0  0  0
   -1.7553    0.7098   -1.2166 H   0  0  0  0  0  0  0  0  0  0  0  0
   -2.5293    1.8304    0.9943 H   0  0  0  0  0  0  0  0  0  0  0  0
   -3.0167    2.4789   -0.5533 H   0  0  0  0  0  0  0  0  0  0  0  0
   -4.9109    2.5254    0.8896 H   0  0  0  0  0  0  0  0  0  0  0  0
   -4.7681    0.8325    1.3335 H   0  0  0  0  0  0  0  0  0  0  0  0
   -3.8642   -1.5764    1.1489 H   0  0  0  0  0  0  0  0  0  0  0  0
   -3.0115   -0.3153    2.0842 H   0  0  0  0  0  0  0  0  0  0  0  0
   -2.1964   -2.3739    3.0427 H   0  0  0  0  0  0  0  0  0  0  0  0
   -2.0524   -3.1340    1.4460 H   0  0  0  0  0  0  0  0  0  0  0  0
   -0.3015   -1.0273    2.6924 H   0  0  0  0  0  0  0  0  0  0  0  0
    0.1586   -2.3836    1.6475 H   0  0  0  0  0  0  0  0  0  0  0  0
   -0.5120    0.3903    0.9321 H   0  0  0  0  0  0  0  0  0  0  0  0
    1.6735    1.0788    0.7816 H   0  0  0  0  0  0  0  0  0  0  0  0
    2.0086   -0.4450    1.6757 H   0  0  0  0  0  0  0  0  0  0  0  0
    2.6131   -2.1098   -1.4866 H   0  0  0  0  0  0  0  0  0  0  0  0
    2.2730   -0.5669   -2.3403 H   0  0  0  0  0  0  0  0  0  0  0  0
    7.7942    1.2301   -1.1959 H   0  0  0  0  0  0  0  0  0  0  0  0
    7.5374   -0.2772   -2.0996 H   0  0  0  0  0  0  0  0  0  0  0  0
    8.0891   -0.3398   -0.4113 H   0  0  0  0  0  0  0  0  0  0  0  0
    7.6350    0.7578    1.6078 H   0  0  0  0  0  0  0  0  0  0  0  0
    7.2455    2.3036    0.8011 H   0  0  0  0  0  0  0  0  0  0  0  0
    6.4397    1.8590    2.3179 H   0  0  0  0  0  0  0  0  0  0  0  0
  1  2  1  0
  2  3  1  0
  3  4  1  0
  4  5  1  0
  5  6  1  0
  6  7  1  0
  5  8  1  0
  8  9  1  0
  9 10  1  0
 10 11  1  0
 11 12  1  0
 12 13  1  0
 13 14  2  0
 13 15  1  0
 15 16  1  0
 16 17  1  0
 17 18  2  0
 18 19  1  0
 18 20  1  0
 20 21  2  0
 20 22  1  0
 22 23  1  0
 22 24  1  0
 24 25  2  0
 24 26  1  0
  7  2  1  0
 12  8  1  0
 19 15  1  0
 25 17  1  0
  1 27  1  0
  1 28  1  0
  1 29  1  0
  3 30  1  0
  3 31  1  0
  4 32  1  0
  4 33  1  0
  5 34  1  0
  6 35  1  0
  6 36  1  0
  7 37  1  0
  7 38  1  0
  9 39  1  0
  9 40  1  0
 10 41  1  0
 10 42  1  0
 11 43  1  0
 11 44  1  0
 12 45  1  1
 16 46  1  0
 16 47  1  0
 19 48  1  0
 19 49  1  0
 23 50  1  0
 23 51  1  0
 23 52  1  0
 26 53  1  0
 26 54  1  0
 26 55  1  0
M  END
>  <Unnamed: 0>  (228) 
1510

>  <ID>  (228) 
TRAIN_1510

>  <Canonical_Smiles>  (228) 
CN1CCC(CC1)N2CCC[C@H]2C(=O)N3CC4=C(C3)C(=O)N(C)C(=N4)C

>  <Inhibition>  (228) 
41.929422

>  <TDC_conf_true_inhibitor>  (228) 
0

>  <TDC_conf_non_inhibitor>  (228) 
1

>  <split>  (228) 
1

$$$$
228
     RDKit          3D

 35 36  0  0  0  0  0  0  0  0999 V2000
   -4.5197    0.9975   -0.7228 C   0  0  0  0  0  0  0  0  0  0  0  0
   -4.1289    0.3534    0.6036 C   0  0  0  0  0  0  0  0  0  0  0  0
   -5.3218   -0.3805    1.2062 C   0  0  0  0  0  0  0  0  0  0  0  0
   -3.0921   -0.6133    0.4246 O   0  0  0  0  0  0  0  0  0  0  0  0
   -1.8130   -0.0552    0.1581 C   0  0  0  0  0  0  0  0  0  0  0  0
   -0.6753   -1.0906    0.2683 C   0  0  0  0  0  0  0  0  0  0  0  0
   -0.8803   -2.2503    0.6297 O   0  0  0  0  0  0  0  0  0  0  0  0
    0.6159   -0.6486   -0.0387 N   0  0  0  0  0  0  0  0  0  0  0  0
    1.6884   -1.6502   -0.0906 C   0  0  0  0  0  0  0  0  0  0  0  0
    3.0004   -1.0954    0.4579 C   0  0  0  0  0  0  0  0  0  0  0  0
    3.2677    0.2119   -0.0989 N   0  0  0  0  0  0  0  0  0  0  0  0
    2.2997    1.0208   -0.6287 C   0  0  0  0  0  0  0  0  0  0  0  0
    0.8695    0.6270   -0.7212 C   0  0  0  0  0  0  0  0  0  0  0  0
    2.8606    2.1393   -1.0310 N   0  0  0  0  0  0  0  0  0  0  0  0
    4.2058    2.0631   -0.7502 N   0  0  0  0  0  0  0  0  0  0  0  0
    4.4485    0.8964   -0.1783 C   0  0  0  0  0  0  0  0  0  0  0  0
    5.7385    0.3583    0.3136 C   0  0  0  0  0  0  0  0  0  0  0  0
    6.7548    1.2533    0.2725 F   0  0  0  0  0  0  0  0  0  0  0  0
    6.1307   -0.7244   -0.4101 F   0  0  0  0  0  0  0  0  0  0  0  0
    5.6374   -0.0676    1.6021 F   0  0  0  0  0  0  0  0  0  0  0  0
   -5.3892    1.6517   -0.6048 H   0  0  0  0  0  0  0  0  0  0  0  0
   -4.7503    0.2355   -1.4753 H   0  0  0  0  0  0  0  0  0  0  0  0
   -3.6994    1.6014   -1.1235 H   0  0  0  0  0  0  0  0  0  0  0  0
   -3.7997    1.1216    1.3138 H   0  0  0  0  0  0  0  0  0  0  0  0
   -5.6650   -1.1832    0.5439 H   0  0  0  0  0  0  0  0  0  0  0  0
   -5.0393   -0.8536    2.1531 H   0  0  0  0  0  0  0  0  0  0  0  0
   -6.1568    0.3014    1.3938 H   0  0  0  0  0  0  0  0  0  0  0  0
   -1.8116    0.3443   -0.8603 H   0  0  0  0  0  0  0  0  0  0  0  0
   -1.6032    0.7409    0.8811 H   0  0  0  0  0  0  0  0  0  0  0  0
    1.4200   -2.5528    0.4676 H   0  0  0  0  0  0  0  0  0  0  0  0
    1.8012   -1.9406   -1.1429 H   0  0  0  0  0  0  0  0  0  0  0  0
    2.9440   -0.9652    1.5444 H   0  0  0  0  0  0  0  0  0  0  0  0
    3.8323   -1.7630    0.2157 H   0  0  0  0  0  0  0  0  0  0  0  0
    0.5829    0.5028   -1.7713 H   0  0  0  0  0  0  0  0  0  0  0  0
    0.2473    1.4135   -0.2855 H   0  0  0  0  0  0  0  0  0  0  0  0
  1  2  1  0
  2  3  1  0
  2  4  1  0
  4  5  1  0
  5  6  1  0
  6  7  2  0
  6  8  1  0
  8  9  1  0
  9 10  1  0
 10 11  1  0
 11 12  1  0
 12 13  1  0
 12 14  2  0
 14 15  1  0
 15 16  2  0
 16 17  1  0
 17 18  1  0
 17 19  1  0
 17 20  1  0
 13  8  1  0
 16 11  1  0
  1 21  1  0
  1 22  1  0
  1 23  1  0
  2 24  1  0
  3 25  1  0
  3 26  1  0
  3 27  1  0
  5 28  1  0
  5 29  1  0
  9 30  1  0
  9 31  1  0
 10 32  1  0
 10 33  1  0
 13 34  1  0
 13 35  1  0
M  END
>  <Unnamed: 0>  (229) 
1519

>  <ID>  (229) 
TRAIN_1519

>  <Canonical_Smiles>  (229) 
CC(C)OCC(=O)N1CCn2c(C1)nnc2C(F)(F)F

>  <Inhibition>  (229) 
24.298747

>  <TDC_conf_true_inhibitor>  (229) 
0

>  <TDC_conf_non_inhibitor>  (229) 
1

>  <split>  (229) 
1

$$$$
229
     RDKit          3D

 53 54  0  0  0  0  0  0  0  0999 V2000
   -6.0767    0.4321    0.1330 C   0  0  0  0  0  0  0  0  0  0  0  0
   -4.8862    1.3703    0.2688 C   0  0  0  0  0  0  0  0  0  0  0  0
   -3.6114    0.6627    0.1140 N   0  0  0  0  0  0  0  0  0  0  0  0
   -3.0171    0.1226    1.3333 C   0  0  0  0  0  0  0  0  0  0  0  0
   -2.3357    1.1943    2.1685 C   0  0  0  0  0  0  0  0  0  0  0  0
   -3.1153    0.5241   -1.1814 C   0  0  0  0  0  0  0  0  0  0  0  0
   -3.8027    0.9000   -2.1439 O   0  0  0  0  0  0  0  0  0  0  0  0
   -1.8259   -0.2759   -1.4941 C   0  0  2  0  0  0  0  0  0  0  0  0
   -2.1630   -1.7759   -1.5329 C   0  0  0  0  0  0  0  0  0  0  0  0
   -0.8034   -2.4517   -1.3897 C   0  0  1  0  0  0  0  0  0  0  0  0
   -0.1352   -2.4863   -2.6904 N   0  0  0  0  0  0  0  0  0  0  0  0
   -0.0925   -1.5258   -0.3857 C   0  0  0  0  0  0  0  0  0  0  0  0
   -0.6383   -0.1915   -0.6334 N   0  0  0  0  0  0  0  0  0  0  0  0
    0.0764    0.9910   -0.6106 C   0  0  0  0  0  0  0  0  0  0  0  0
   -0.3964    2.0596   -0.9948 O   0  0  0  0  0  0  0  0  0  0  0  0
    1.4202    0.9745    0.0117 C   0  0  0  0  0  0  0  0  0  0  0  0
    1.5406    1.4787    1.2480 C   0  0  0  0  0  0  0  0  0  0  0  0
    2.8202    1.5315    1.9011 C   0  0  0  0  0  0  0  0  0  0  0  0
    3.9362    1.1129    1.2801 C   0  0  0  0  0  0  0  0  0  0  0  0
    5.2645    1.1947    1.9827 C   0  0  0  0  0  0  0  0  0  0  0  0
    3.8558    0.6059   -0.0228 N   0  0  0  0  0  0  0  0  0  0  0  0
    5.0419    0.1114   -0.7276 C   0  0  0  0  0  0  0  0  0  0  0  0
    5.2379   -1.3859   -0.5339 C   0  0  0  0  0  0  0  0  0  0  0  0
    2.6305    0.4937   -0.7095 C   0  0  0  0  0  0  0  0  0  0  0  0
    2.5321    0.0017   -1.8327 O   0  0  0  0  0  0  0  0  0  0  0  0
   -6.0502   -0.3522    0.8963 H   0  0  0  0  0  0  0  0  0  0  0  0
   -6.0876   -0.0572   -0.8462 H   0  0  0  0  0  0  0  0  0  0  0  0
   -7.0124    0.9878    0.2476 H   0  0  0  0  0  0  0  0  0  0  0  0
   -4.9612    2.1614   -0.4862 H   0  0  0  0  0  0  0  0  0  0  0  0
   -4.9104    1.8658    1.2446 H   0  0  0  0  0  0  0  0  0  0  0  0
   -2.3094   -0.6685    1.1018 H   0  0  0  0  0  0  0  0  0  0  0  0
   -3.8124   -0.3516    1.9200 H   0  0  0  0  0  0  0  0  0  0  0  0
   -3.0663    1.8864    2.5987 H   0  0  0  0  0  0  0  0  0  0  0  0
   -1.6428    1.7871    1.5678 H   0  0  0  0  0  0  0  0  0  0  0  0
   -1.7828    0.7383    2.9954 H   0  0  0  0  0  0  0  0  0  0  0  0
   -1.4964    0.0531   -2.4904 H   0  0  0  0  0  0  0  0  0  0  0  0
   -2.8074   -2.0634   -0.6930 H   0  0  0  0  0  0  0  0  0  0  0  0
   -2.6967   -2.0531   -2.4492 H   0  0  0  0  0  0  0  0  0  0  0  0
   -0.8805   -3.4712   -0.9995 H   0  0  0  0  0  0  0  0  0  0  0  0
    0.8603   -2.6826   -2.5904 H   0  0  0  0  0  0  0  0  0  0  0  0
   -0.5331   -3.2133   -3.2820 H   0  0  0  0  0  0  0  0  0  0  0  0
   -0.3634   -1.7998    0.6401 H   0  0  0  0  0  0  0  0  0  0  0  0
    0.9938   -1.5777   -0.4680 H   0  0  0  0  0  0  0  0  0  0  0  0
    0.6857    1.8806    1.7810 H   0  0  0  0  0  0  0  0  0  0  0  0
    2.8478    1.9382    2.9082 H   0  0  0  0  0  0  0  0  0  0  0  0
    5.7427    0.2121    2.0369 H   0  0  0  0  0  0  0  0  0  0  0  0
    5.9330    1.8918    1.4673 H   0  0  0  0  0  0  0  0  0  0  0  0
    5.1593    1.5544    3.0126 H   0  0  0  0  0  0  0  0  0  0  0  0
    5.9349    0.6594   -0.4129 H   0  0  0  0  0  0  0  0  0  0  0  0
    4.9305    0.3175   -1.7992 H   0  0  0  0  0  0  0  0  0  0  0  0
    4.3768   -1.9496   -0.9074 H   0  0  0  0  0  0  0  0  0  0  0  0
    5.3647   -1.6374    0.5235 H   0  0  0  0  0  0  0  0  0  0  0  0
    6.1268   -1.7247   -1.0749 H   0  0  0  0  0  0  0  0  0  0  0  0
  1  2  1  0
  2  3  1  0
  3  4  1  0
  4  5  1  0
  3  6  1  0
  6  7  2  0
  6  8  1  0
  8  9  1  0
  9 10  1  0
 10 11  1  0
 10 12  1  0
 12 13  1  0
 13 14  1  0
 14 15  2  0
 14 16  1  0
 16 17  2  0
 17 18  1  0
 18 19  2  0
 19 20  1  0
 19 21  1  0
 21 22  1  0
 22 23  1  0
 21 24  1  0
 24 25  2  0
 13  8  1  0
 24 16  1  0
  1 26  1  0
  1 27  1  0
  1 28  1  0
  2 29  1  0
  2 30  1  0
  4 31  1  0
  4 32  1  0
  5 33  1  0
  5 34  1  0
  5 35  1  0
  8 36  1  6
  9 37  1  0
  9 38  1  0
 10 39  1  1
 11 40  1  0
 11 41  1  0
 12 42  1  0
 12 43  1  0
 17 44  1  0
 18 45  1  0
 20 46  1  0
 20 47  1  0
 20 48  1  0
 22 49  1  0
 22 50  1  0
 23 51  1  0
 23 52  1  0
 23 53  1  0
M  END
>  <Unnamed: 0>  (230) 
1520

>  <ID>  (230) 
TRAIN_1520

>  <Canonical_Smiles>  (230) 
CCN(CC)C(=O)[C@@H]1C[C@@H](N)CN1C(=O)C2=CC=C(C)N(CC)C2=O

>  <Inhibition>  (230) 
33.469805

>  <TDC_conf_true_inhibitor>  (230) 
0

>  <TDC_conf_non_inhibitor>  (230) 
1

>  <split>  (230) 
1

$$$$
230
     RDKit          3D

 51 54  0  0  0  0  0  0  0  0999 V2000
   -8.5268   -0.2204   -2.3435 C   0  0  0  0  0  0  0  0  0  0  0  0
   -7.1431    0.1083   -2.3264 O   0  0  0  0  0  0  0  0  0  0  0  0
   -6.4885    0.0100   -1.1293 C   0  0  0  0  0  0  0  0  0  0  0  0
   -7.0641   -0.3357    0.0946 C   0  0  0  0  0  0  0  0  0  0  0  0
   -6.2733   -0.4013    1.2446 C   0  0  0  0  0  0  0  0  0  0  0  0
   -6.7088   -0.7174    2.5046 O   0  0  0  0  0  0  0  0  0  0  0  0
   -8.1024   -0.9493    2.6681 C   0  0  0  0  0  0  0  0  0  0  0  0
   -4.9028   -0.1262    1.1636 C   0  0  0  0  0  0  0  0  0  0  0  0
   -4.3076    0.2230   -0.0555 C   0  0  0  0  0  0  0  0  0  0  0  0
   -5.1200    0.2940   -1.1942 C   0  0  0  0  0  0  0  0  0  0  0  0
   -2.8823    0.5200   -0.1685 C   0  0  0  0  0  0  0  0  0  0  0  0
   -2.2839    1.1808   -1.1460 N   0  0  0  0  0  0  0  0  0  0  0  0
   -0.9318    1.2324   -0.8833 N   0  0  0  0  0  0  0  0  0  0  0  0
   -0.7365    0.5926    0.2402 C   0  0  0  0  0  0  0  0  0  0  0  0
    0.7417    0.3010    1.0617 S   0  0  0  0  0  0  0  0  0  0  0  0
    1.8112    1.4862    0.1948 C   0  0  0  0  0  0  0  0  0  0  0  0
    3.2216    1.4016    0.7506 C   0  0  0  0  0  0  0  0  0  0  0  0
    3.4972    1.6772    1.9157 O   0  0  0  0  0  0  0  0  0  0  0  0
    4.1718    1.0041   -0.1713 N   0  0  0  0  0  0  0  0  0  0  0  0
    5.5552    0.7896    0.2215 C   0  0  0  0  0  0  0  0  0  0  0  0
    5.7764   -0.6157    0.8210 C   0  0  0  0  0  0  0  0  0  0  0  0
    6.8571   -1.2174   -0.0979 C   0  0  0  0  0  0  0  0  0  0  0  0
    8.1899   -0.4875    0.1466 C   0  0  0  0  0  0  0  0  0  0  0  0
    7.9512    0.8907   -0.4869 C   0  0  0  0  0  0  0  0  0  0  0  0
    6.5028    0.7880   -0.9988 C   0  0  0  0  0  0  0  0  0  0  0  0
    6.4473   -0.6704   -1.4626 C   0  0  0  0  0  0  0  0  0  0  0  0
   -1.9179    0.1377    0.7326 N   0  0  0  0  0  0  0  0  0  0  0  0
   -9.1050    0.4811   -1.7308 H   0  0  0  0  0  0  0  0  0  0  0  0
   -8.6936   -1.2551   -2.0228 H   0  0  0  0  0  0  0  0  0  0  0  0
   -8.8785   -0.1315   -3.3750 H   0  0  0  0  0  0  0  0  0  0  0  0
   -8.1239   -0.5494    0.1526 H   0  0  0  0  0  0  0  0  0  0  0  0
   -8.6848   -0.0584    2.4086 H   0  0  0  0  0  0  0  0  0  0  0  0
   -8.4269   -1.8167    2.0882 H   0  0  0  0  0  0  0  0  0  0  0  0
   -8.2827   -1.1704    3.7234 H   0  0  0  0  0  0  0  0  0  0  0  0
   -4.3208   -0.1665    2.0789 H   0  0  0  0  0  0  0  0  0  0  0  0
   -4.6832    0.5691   -2.1546 H   0  0  0  0  0  0  0  0  0  0  0  0
    1.8084    1.2694   -0.8781 H   0  0  0  0  0  0  0  0  0  0  0  0
    1.4430    2.5080    0.3489 H   0  0  0  0  0  0  0  0  0  0  0  0
    3.8537    0.5860   -1.0370 H   0  0  0  0  0  0  0  0  0  0  0  0
    5.8312    1.5680    0.9421 H   0  0  0  0  0  0  0  0  0  0  0  0
    4.8624   -1.2221    0.7857 H   0  0  0  0  0  0  0  0  0  0  0  0
    6.1107   -0.5635    1.8622 H   0  0  0  0  0  0  0  0  0  0  0  0
    6.9336   -2.3038   -0.0284 H   0  0  0  0  0  0  0  0  0  0  0  0
    8.4403   -0.4140    1.2094 H   0  0  0  0  0  0  0  0  0  0  0  0
    9.0144   -0.9974   -0.3640 H   0  0  0  0  0  0  0  0  0  0  0  0
    8.0880    1.7030    0.2324 H   0  0  0  0  0  0  0  0  0  0  0  0
    8.6472    1.0505   -1.3161 H   0  0  0  0  0  0  0  0  0  0  0  0
    6.2558    1.5286   -1.7621 H   0  0  0  0  0  0  0  0  0  0  0  0
    5.4497   -0.9947   -1.7770 H   0  0  0  0  0  0  0  0  0  0  0  0
    7.1701   -0.8974   -2.2540 H   0  0  0  0  0  0  0  0  0  0  0  0
   -2.0424   -0.4058    1.5716 H   0  0  0  0  0  0  0  0  0  0  0  0
  1  2  1  0
  2  3  1  0
  3  4  2  0
  4  5  1  0
  5  6  1  0
  6  7  1  0
  5  8  2  0
  8  9  1  0
  9 10  2  0
  9 11  1  0
 11 12  2  0
 12 13  1  0
 13 14  2  0
 14 15  1  0
 15 16  1  0
 16 17  1  0
 17 18  2  0
 17 19  1  0
 19 20  1  0
 20 21  1  0
 21 22  1  0
 22 23  1  0
 23 24  1  0
 24 25  1  0
 25 26  1  0
 14 27  1  0
 10  3  1  0
 27 11  1  0
 25 20  1  0
 26 22  1  0
  1 28  1  0
  1 29  1  0
  1 30  1  0
  4 31  1  0
  7 32  1  0
  7 33  1  0
  7 34  1  0
  8 35  1  0
 10 36  1  0
 16 37  1  0
 16 38  1  0
 19 39  1  0
 20 40  1  0
 21 41  1  0
 21 42  1  0
 22 43  1  0
 23 44  1  0
 23 45  1  0
 24 46  1  0
 24 47  1  0
 25 48  1  0
 26 49  1  0
 26 50  1  0
 27 51  1  0
M  END
>  <Unnamed: 0>  (231) 
1521

>  <ID>  (231) 
TRAIN_1521

>  <Canonical_Smiles>  (231) 
COc1cc(OC)cc(c1)c2nnc(SCC(=O)NC3CC4CCC3C4)[nH]2

>  <Inhibition>  (231) 
60.052464

>  <TDC_conf_true_inhibitor>  (231) 
1

>  <TDC_conf_non_inhibitor>  (231) 
0

>  <split>  (231) 
1

$$$$
231
     RDKit          3D

 48 49  0  0  0  0  0  0  0  0999 V2000
   -0.4859    3.6978    0.8702 C   0  0  0  0  0  0  0  0  0  0  0  0
   -1.6602    2.7334    0.7179 C   0  0  0  0  0  0  0  0  0  0  0  0
   -2.9484    3.3814    1.2239 C   0  0  0  0  0  0  0  0  0  0  0  0
   -1.4127    1.5267    1.5029 N   0  0  0  0  0  0  0  0  0  0  0  0
   -0.7616    0.3582    1.1001 C   0  0  0  0  0  0  0  0  0  0  0  0
   -0.3454   -0.6431    1.9315 C   0  0  0  0  0  0  0  0  0  0  0  0
   -0.6049   -0.5817    3.3813 C   0  0  0  0  0  0  0  0  0  0  0  0
   -0.1516   -1.5301    4.2216 C   0  0  0  0  0  0  0  0  0  0  0  0
    0.6264   -2.6830    3.7287 C   0  0  0  0  0  0  0  0  0  0  0  0
    1.1381   -3.6105    4.5801 C   0  0  0  0  0  0  0  0  0  0  0  0
    0.9752   -3.5130    5.9939 C   0  0  0  0  0  0  0  0  0  0  0  0
    0.8347   -3.4212    7.1425 N   0  0  0  0  0  0  0  0  0  0  0  0
    1.8796   -4.7370    4.1174 C   0  0  0  0  0  0  0  0  0  0  0  0
    2.4814   -5.6505    3.7313 N   0  0  0  0  0  0  0  0  0  0  0  0
    0.7972   -2.8012    2.2682 C   0  0  0  0  0  0  0  0  0  0  0  0
    0.3408   -1.8509    1.4330 C   0  0  0  0  0  0  0  0  0  0  0  0
   -0.5550    0.2229   -0.3654 C   0  0  0  0  0  0  0  0  0  0  0  0
   -1.5679   -0.3037   -1.1705 C   0  0  0  0  0  0  0  0  0  0  0  0
   -1.3735   -0.4343   -2.5492 C   0  0  0  0  0  0  0  0  0  0  0  0
   -0.1827   -0.0212   -3.1661 C   0  0  0  0  0  0  0  0  0  0  0  0
   -0.0406   -0.2455   -4.5367 N   0  0  0  0  0  0  0  0  0  0  0  0
    1.0344    0.3792   -5.3042 C   0  0  0  0  0  0  0  0  0  0  0  0
    2.2650   -0.5273   -5.3860 C   0  0  0  0  0  0  0  0  0  0  0  0
    3.2763    0.0938   -6.1751 O   0  0  0  0  0  0  0  0  0  0  0  0
    0.8358    0.4700   -2.3421 C   0  0  0  0  0  0  0  0  0  0  0  0
    0.6515    0.6041   -0.9601 C   0  0  0  0  0  0  0  0  0  0  0  0
   -0.6544    4.6102    0.2897 H   0  0  0  0  0  0  0  0  0  0  0  0
   -0.3396    3.9850    1.9177 H   0  0  0  0  0  0  0  0  0  0  0  0
    0.4481    3.2460    0.5229 H   0  0  0  0  0  0  0  0  0  0  0  0
   -1.8051    2.5013   -0.3413 H   0  0  0  0  0  0  0  0  0  0  0  0
   -3.1781    4.2879    0.6545 H   0  0  0  0  0  0  0  0  0  0  0  0
   -2.8741    3.6530    2.2823 H   0  0  0  0  0  0  0  0  0  0  0  0
   -3.7938    2.6932    1.1165 H   0  0  0  0  0  0  0  0  0  0  0  0
   -1.3439    1.7123    2.4961 H   0  0  0  0  0  0  0  0  0  0  0  0
   -1.2028    0.2236    3.7901 H   0  0  0  0  0  0  0  0  0  0  0  0
   -0.3915   -1.4356    5.2777 H   0  0  0  0  0  0  0  0  0  0  0  0
    1.2938   -3.6658    1.8355 H   0  0  0  0  0  0  0  0  0  0  0  0
    0.4848   -1.9887    0.3654 H   0  0  0  0  0  0  0  0  0  0  0  0
   -2.5092   -0.6171   -0.7263 H   0  0  0  0  0  0  0  0  0  0  0  0
   -2.1724   -0.8681   -3.1458 H   0  0  0  0  0  0  0  0  0  0  0  0
   -0.9360   -0.2071   -5.0188 H   0  0  0  0  0  0  0  0  0  0  0  0
    0.6707    0.5499   -6.3255 H   0  0  0  0  0  0  0  0  0  0  0  0
    1.2942    1.3765   -4.9295 H   0  0  0  0  0  0  0  0  0  0  0  0
    2.6796   -0.7298   -4.3945 H   0  0  0  0  0  0  0  0  0  0  0  0
    2.0044   -1.4847   -5.8501 H   0  0  0  0  0  0  0  0  0  0  0  0
    4.0266   -0.5258   -6.2010 H   0  0  0  0  0  0  0  0  0  0  0  0
    1.7957    0.7679   -2.7519 H   0  0  0  0  0  0  0  0  0  0  0  0
    1.4572    1.0027   -0.3483 H   0  0  0  0  0  0  0  0  0  0  0  0
  1  2  1  0
  2  3  1  0
  2  4  1  0
  4  5  1  0
  5  6  2  3
  6  7  1  0
  7  8  2  0
  8  9  1  0
  9 10  2  3
 10 11  1  0
 11 12  3  0
 10 13  1  0
 13 14  3  0
  9 15  1  0
 15 16  2  0
  5 17  1  0
 17 18  2  0
 18 19  1  0
 19 20  2  0
 20 21  1  0
 21 22  1  0
 22 23  1  0
 23 24  1  0
 20 25  1  0
 25 26  2  0
 16  6  1  0
 26 17  1  0
  1 27  1  0
  1 28  1  0
  1 29  1  0
  2 30  1  0
  3 31  1  0
  3 32  1  0
  3 33  1  0
  4 34  1  0
  7 35  1  0
  8 36  1  0
 15 37  1  0
 16 38  1  0
 18 39  1  0
 19 40  1  0
 21 41  1  0
 22 42  1  0
 22 43  1  0
 23 44  1  0
 23 45  1  0
 24 46  1  0
 25 47  1  0
 26 48  1  0
M  END
>  <Unnamed: 0>  (232) 
1523

>  <ID>  (232) 
TRAIN_1523

>  <Canonical_Smiles>  (232) 
CC(C)NC(=C1C=CC(=C(C#N)C#N)C=C1)c2ccc(NCCO)cc2

>  <Inhibition>  (232) 
95.149662

>  <TDC_conf_true_inhibitor>  (232) 
1

>  <TDC_conf_non_inhibitor>  (232) 
0

>  <split>  (232) 
1

$$$$
232
     RDKit          3D

 44 45  0  0  0  0  0  0  0  0999 V2000
    0.0000    0.0000    0.0000 Na  0  0  0  0  0 15  0  0  0  0  0  0
   -6.5371   -0.8384   -3.4521 C   0  0  0  0  0  0  0  0  0  0  0  0
   -5.6967   -0.8979   -2.3011 O   0  0  0  0  0  0  0  0  0  0  0  0
   -4.5107   -0.2449   -2.4535 C   0  0  0  0  0  0  0  0  0  0  0  0
   -4.1675    0.3427   -3.4679 O   0  0  0  0  0  0  0  0  0  0  0  0
   -3.7004   -0.3480   -1.2074 C   0  0  0  0  0  0  0  0  0  0  0  0
   -4.1134   -1.1138   -0.1129 C   0  0  0  0  0  0  0  0  0  0  0  0
   -3.3171   -1.1787    1.0319 C   0  0  0  0  0  0  0  0  0  0  0  0
   -2.1050   -0.4735    1.0998 C   0  0  0  0  0  0  0  0  0  0  0  0
   -1.2366   -0.4889    2.2804 C   0  0  0  0  0  0  0  0  0  0  0  0
   -0.0546    0.1322    2.2054 C   0  0  0  0  0  0  0  0  0  0  0  0
    0.4071    0.8589    1.0066 C   0  0  0  0  0  0  0  0  0  0  0  0
    1.6677    1.3713    0.9978 C   0  0  0  0  0  0  0  0  0  0  0  0
    2.1816    1.9959   -0.2571 C   0  0  0  0  0  0  0  0  0  0  0  0
    1.8266    3.1044   -0.6580 O   0  0  0  0  0  0  0  0  0  0  0  0
    3.3053    1.2494   -0.9521 C   0  0  0  0  0  0  0  0  0  0  0  0
    4.0283    0.2110   -0.0596 C   0  0  0  0  0  0  0  0  0  0  0  0
    3.3474   -1.1697   -0.1606 C   0  0  0  0  0  0  0  0  0  0  0  0
    5.4742    0.0429   -0.5730 C   0  0  0  0  0  0  0  0  0  0  0  0
    4.0878    0.6909    1.4106 C   0  0  0  0  0  0  0  0  0  0  0  0
    2.7428    1.0940    1.9958 C   0  0  0  0  0  0  0  0  0  0  0  0
    2.6166    1.2421    3.2103 O   0  0  0  0  0  0  0  0  0  0  0  0
   -0.4697    0.9349   -0.0417 N   0  0  0  0  0  2  0  0  0  0  0  0
   -1.6532    0.2796   -0.0020 C   0  0  0  0  0  0  0  0  0  0  0  0
   -2.4777    0.3338   -1.1432 C   0  0  0  0  0  0  0  0  0  0  0  0
   -1.6864   -1.0596    3.4518 O   0  0  0  0  0  0  0  0  0  0  0  0
   -6.0511   -1.3161   -4.3087 H   0  0  0  0  0  0  0  0  0  0  0  0
   -7.4568   -1.3861   -3.2284 H   0  0  0  0  0  0  0  0  0  0  0  0
   -6.8010    0.1985   -3.6830 H   0  0  0  0  0  0  0  0  0  0  0  0
   -5.0439   -1.6709   -0.1366 H   0  0  0  0  0  0  0  0  0  0  0  0
   -3.6421   -1.8010    1.8584 H   0  0  0  0  0  0  0  0  0  0  0  0
    0.5567    0.1323    3.0996 H   0  0  0  0  0  0  0  0  0  0  0  0
    4.0244    2.0186   -1.2638 H   0  0  0  0  0  0  0  0  0  0  0  0
    2.9043    0.7858   -1.8604 H   0  0  0  0  0  0  0  0  0  0  0  0
    3.8685   -1.9096    0.4578 H   0  0  0  0  0  0  0  0  0  0  0  0
    2.3042   -1.1535    0.1625 H   0  0  0  0  0  0  0  0  0  0  0  0
    3.3604   -1.5377   -1.1932 H   0  0  0  0  0  0  0  0  0  0  0  0
    6.0204   -0.7012    0.0179 H   0  0  0  0  0  0  0  0  0  0  0  0
    5.4865   -0.2846   -1.6188 H   0  0  0  0  0  0  0  0  0  0  0  0
    6.0307    0.9851   -0.5130 H   0  0  0  0  0  0  0  0  0  0  0  0
    4.5037   -0.1023    2.0439 H   0  0  0  0  0  0  0  0  0  0  0  0
    4.7426    1.5676    1.4945 H   0  0  0  0  0  0  0  0  0  0  0  0
   -2.1420    0.9207   -1.9982 H   0  0  0  0  0  0  0  0  0  0  0  0
   -2.6246   -0.8160    3.4970 H   0  0  0  0  0  0  0  0  0  0  0  0
  2  3  1  0
  3  4  1  0
  4  5  2  0
  4  6  1  0
  6  7  2  0
  7  8  1  0
  8  9  2  0
  9 10  1  0
 10 11  2  0
 11 12  1  0
 12 13  2  3
 13 14  1  0
 14 15  2  0
 14 16  1  0
 16 17  1  0
 17 18  1  0
 17 19  1  0
 17 20  1  0
 20 21  1  0
 21 22  2  0
 12 23  1  0
 23 24  1  0
 24 25  2  0
 10 26  1  0
 25  6  1  0
 24  9  1  0
 21 13  1  0
  2 27  1  0
  2 28  1  0
  2 29  1  0
  7 30  1  0
  8 31  1  0
 11 32  1  0
 16 33  1  0
 16 34  1  0
 18 35  1  0
 18 36  1  0
 18 37  1  0
 19 38  1  0
 19 39  1  0
 19 40  1  0
 20 41  1  0
 20 42  1  0
 25 43  1  0
 26 44  1  0
M  CHG  2   1   1  23  -1
M  END
>  <Unnamed: 0>  (233) 
1535

>  <ID>  (233) 
TRAIN_1535

>  <Canonical_Smiles>  (233) 
[Na+].COC(=O)c1ccc2C(=CC(=C3C(=O)CC(C)(C)CC3=O)[N-]c2c1)O

>  <Inhibition>  (233) 
6.830777

>  <TDC_conf_true_inhibitor>  (233) 
0

>  <TDC_conf_non_inhibitor>  (233) 
1

>  <split>  (233) 
1

$$$$
233
     RDKit          3D

 32 33  0  0  0  0  0  0  0  0999 V2000
   -5.7074    1.0277   -0.8557 C   0  0  0  0  0  0  0  0  0  0  0  0
   -4.4201    0.2199   -0.8717 C   0  0  0  0  0  0  0  0  0  0  0  0
   -3.3913    0.7868    0.1023 C   0  0  0  0  0  0  0  0  0  0  0  0
   -2.0999   -0.0088    0.1018 C   0  0  0  0  0  0  0  0  0  0  0  0
   -1.8973   -0.9833   -0.6154 O   0  0  0  0  0  0  0  0  0  0  0  0
   -1.1777    0.4898    1.0104 N   0  0  0  0  0  0  0  0  0  0  0  0
    0.1505   -0.0042    0.8890 N   0  0  0  0  0  0  0  0  0  0  0  0
    0.5565   -1.0856    1.6990 C   0  0  0  0  0  0  0  0  0  0  0  0
   -0.3628   -1.8216    2.8989 S   0  0  0  0  0  0  0  0  0  0  0  0
    1.8413   -1.5599    1.4947 N   0  0  0  0  0  0  0  0  0  0  0  0
    2.6729   -1.0013    0.5579 C   0  0  0  0  0  0  0  0  0  0  0  0
    3.9876   -1.3171    0.1761 C   0  0  0  0  0  0  0  0  0  0  0  0
    4.3415   -0.4195   -0.8191 C   0  0  0  0  0  0  0  0  0  0  0  0
    5.5995   -0.2775   -1.5936 C   0  0  0  0  0  0  0  0  0  0  0  0
    3.2660    0.4175   -1.0322 N   0  0  0  0  0  0  0  0  0  0  0  0
    2.2497    0.0619   -0.1899 C   0  0  0  0  0  0  0  0  0  0  0  0
    0.9540    0.6547   -0.0631 C   0  0  0  0  0  0  0  0  0  0  0  0
    0.6022    1.6569   -0.6843 O   0  0  0  0  0  0  0  0  0  0  0  0
   -6.1615    1.0224    0.1404 H   0  0  0  0  0  0  0  0  0  0  0  0
   -6.4297    0.6040   -1.5604 H   0  0  0  0  0  0  0  0  0  0  0  0
   -5.5217    2.0674   -1.1435 H   0  0  0  0  0  0  0  0  0  0  0  0
   -4.6438   -0.8224   -0.6146 H   0  0  0  0  0  0  0  0  0  0  0  0
   -4.0093    0.2141   -1.8884 H   0  0  0  0  0  0  0  0  0  0  0  0
   -3.1553    1.8231   -0.1672 H   0  0  0  0  0  0  0  0  0  0  0  0
   -3.7977    0.7806    1.1206 H   0  0  0  0  0  0  0  0  0  0  0  0
   -1.2301    1.4738    1.2513 H   0  0  0  0  0  0  0  0  0  0  0  0
    2.1627   -2.3472    2.0452 H   0  0  0  0  0  0  0  0  0  0  0  0
    4.6183   -2.1046    0.5680 H   0  0  0  0  0  0  0  0  0  0  0  0
    6.0352    0.7149   -1.4404 H   0  0  0  0  0  0  0  0  0  0  0  0
    5.4093   -0.4124   -2.6632 H   0  0  0  0  0  0  0  0  0  0  0  0
    6.3375   -1.0240   -1.2831 H   0  0  0  0  0  0  0  0  0  0  0  0
    3.2209    1.1740   -1.7052 H   0  0  0  0  0  0  0  0  0  0  0  0
  1  2  1  0
  2  3  1  0
  3  4  1  0
  4  5  2  0
  4  6  1  0
  6  7  1  0
  7  8  1  0
  8  9  2  0
  8 10  1  0
 10 11  1  0
 11 12  1  0
 12 13  2  0
 13 14  1  0
 13 15  1  0
 15 16  1  0
 16 17  1  0
 17 18  2  0
 17  7  1  0
 16 11  2  0
  1 19  1  0
  1 20  1  0
  1 21  1  0
  2 22  1  0
  2 23  1  0
  3 24  1  0
  3 25  1  0
  6 26  1  0
 10 27  1  0
 12 28  1  0
 14 29  1  0
 14 30  1  0
 14 31  1  0
 15 32  1  0
M  END
>  <Unnamed: 0>  (234) 
1537

>  <ID>  (234) 
TRAIN_1537

>  <Canonical_Smiles>  (234) 
CCCC(=O)NN1C(=S)Nc2cc(C)[nH]c2C1=O

>  <Inhibition>  (234) 
6.502441

>  <TDC_conf_true_inhibitor>  (234) 
0

>  <TDC_conf_non_inhibitor>  (234) 
1

>  <split>  (234) 
1

$$$$
234
     RDKit          3D

 45 47  0  0  0  0  0  0  0  0999 V2000
    6.7236   -0.0678   -0.3059 C   0  0  0  0  0  0  0  0  0  0  0  0
    5.8660   -1.1492   -0.9413 C   0  0  0  0  0  0  0  0  0  0  0  0
    4.1481   -0.5965   -1.1634 S   0  0  0  0  0  0  0  0  0  0  0  0
    3.5018   -0.8561    0.4222 C   0  0  0  0  0  0  0  0  0  0  0  0
    4.1540   -1.2306    1.4993 N   0  0  0  0  0  0  0  0  0  0  0  0
    3.2501   -1.2636    2.5482 N   0  0  0  0  0  0  0  0  0  0  0  0
    2.0605   -0.9116    2.0827 C   0  0  0  0  0  0  0  0  0  0  0  0
    0.7825   -0.7939    2.8115 C   0  0  0  0  0  0  0  0  0  0  0  0
    0.1478    0.3751    2.5046 F   0  0  0  0  0  0  0  0  0  0  0  0
    0.9775   -0.7525    4.1589 F   0  0  0  0  0  0  0  0  0  0  0  0
    2.1873   -0.6630    0.7465 N   0  0  0  0  0  0  0  0  0  0  0  0
    1.2148   -0.1860   -0.0716 N   0  0  0  0  0  0  0  0  0  0  0  0
    0.5441   -1.0906   -0.8602 C   0  0  0  0  0  0  0  0  0  0  0  0
    0.6481   -2.3070   -0.7443 O   0  0  0  0  0  0  0  0  0  0  0  0
   -0.3440   -0.4572   -1.9058 C   0  0  0  0  0  0  0  0  0  0  0  0
   -1.7892   -0.8759   -1.6963 C   0  0  0  0  0  0  0  0  0  0  0  0
   -2.3827   -0.2219   -0.5421 N   0  0  0  0  0  0  0  0  0  0  0  0
   -2.3000   -0.8137    0.6662 N   0  0  0  0  0  0  0  0  0  0  0  0
   -2.9517    0.0253    1.4990 C   0  0  0  0  0  0  0  0  0  0  0  0
   -3.4006    1.1791    0.7998 C   0  0  0  0  0  0  0  0  0  0  0  0
   -3.0216    0.9836   -0.5064 C   0  0  0  0  0  0  0  0  0  0  0  0
   -3.2576    1.9642   -1.6817 C   0  0  0  0  0  0  0  0  0  0  0  0
   -4.2275    1.5792   -2.7681 C   0  0  0  0  0  0  0  0  0  0  0  0
   -4.5830    2.6706   -1.8017 C   0  0  0  0  0  0  0  0  0  0  0  0
   -3.1613   -0.2660    2.9635 C   0  0  0  0  0  0  0  0  0  0  0  0
   -2.1213   -0.9372    3.5273 F   0  0  0  0  0  0  0  0  0  0  0  0
   -4.2778   -1.0155    3.1753 F   0  0  0  0  0  0  0  0  0  0  0  0
   -3.3237    0.8775    3.6903 F   0  0  0  0  0  0  0  0  0  0  0  0
    7.7539   -0.4219   -0.2115 H   0  0  0  0  0  0  0  0  0  0  0  0
    6.3749    0.1968    0.6961 H   0  0  0  0  0  0  0  0  0  0  0  0
    6.7398    0.8415   -0.9186 H   0  0  0  0  0  0  0  0  0  0  0  0
    5.8991   -2.0725   -0.3524 H   0  0  0  0  0  0  0  0  0  0  0  0
    6.2656   -1.3835   -1.9341 H   0  0  0  0  0  0  0  0  0  0  0  0
    0.1142   -1.6296    2.5857 H   0  0  0  0  0  0  0  0  0  0  0  0
    1.3176    0.7850   -0.3307 H   0  0  0  0  0  0  0  0  0  0  0  0
    0.0114   -0.8080   -2.8821 H   0  0  0  0  0  0  0  0  0  0  0  0
   -0.2403    0.6349   -1.8987 H   0  0  0  0  0  0  0  0  0  0  0  0
   -1.8909   -1.9576   -1.5500 H   0  0  0  0  0  0  0  0  0  0  0  0
   -2.3900   -0.6079   -2.5708 H   0  0  0  0  0  0  0  0  0  0  0  0
   -3.9359    2.0250    1.2098 H   0  0  0  0  0  0  0  0  0  0  0  0
   -2.3790    2.5328   -1.9762 H   0  0  0  0  0  0  0  0  0  0  0  0
   -3.9915    1.8642   -3.7874 H   0  0  0  0  0  0  0  0  0  0  0  0
   -4.7707    0.6440   -2.6849 H   0  0  0  0  0  0  0  0  0  0  0  0
   -5.3619    2.4652   -1.0758 H   0  0  0  0  0  0  0  0  0  0  0  0
   -4.5807    3.6928   -2.1648 H   0  0  0  0  0  0  0  0  0  0  0  0
  1  2  1  0
  2  3  1  0
  3  4  1  0
  4  5  2  0
  5  6  1  0
  6  7  2  0
  7  8  1  0
  8  9  1  0
  8 10  1  0
  7 11  1  0
 11 12  1  0
 12 13  1  0
 13 14  2  0
 13 15  1  0
 15 16  1  0
 16 17  1  0
 17 18  1  0
 18 19  2  0
 19 20  1  0
 20 21  2  0
 21 22  1  0
 22 23  1  0
 23 24  1  0
 19 25  1  0
 25 26  1  0
 25 27  1  0
 25 28  1  0
 11  4  1  0
 21 17  1  0
 24 22  1  0
  1 29  1  0
  1 30  1  0
  1 31  1  0
  2 32  1  0
  2 33  1  0
  8 34  1  0
 12 35  1  0
 15 36  1  0
 15 37  1  0
 16 38  1  0
 16 39  1  0
 20 40  1  0
 22 41  1  0
 23 42  1  0
 23 43  1  0
 24 44  1  0
 24 45  1  0
M  END
>  <Unnamed: 0>  (235) 
1538

>  <ID>  (235) 
TRAIN_1538

>  <Canonical_Smiles>  (235) 
CCSc1nnc(C(F)F)n1NC(=O)CCn2nc(cc2C3CC3)C(F)(F)F

>  <Inhibition>  (235) 
16.997029

>  <TDC_conf_true_inhibitor>  (235) 
0

>  <TDC_conf_non_inhibitor>  (235) 
1

>  <split>  (235) 
1

$$$$
235
     RDKit          3D

 53 55  0  0  0  0  0  0  0  0999 V2000
   -4.4936   -2.1638    0.2164 C   0  0  0  0  0  0  0  0  0  0  0  0
   -3.0551   -2.6018    0.0158 C   0  0  0  0  0  0  0  0  0  0  0  0
   -2.1606   -1.5864    0.4956 O   0  0  0  0  0  0  0  0  0  0  0  0
   -1.8475   -0.5958   -0.3912 C   0  0  0  0  0  0  0  0  0  0  0  0
   -2.2719   -0.5392   -1.5375 O   0  0  0  0  0  0  0  0  0  0  0  0
   -0.9276    0.4264    0.2568 C   0  0  0  0  0  0  0  0  0  0  0  0
   -0.5473    1.5491   -0.7183 C   0  0  0  0  0  0  0  0  0  0  0  0
    0.5195    1.1831   -1.7214 C   0  0  0  0  0  0  0  0  0  0  0  0
    0.6313    1.9735   -2.8797 C   0  0  0  0  0  0  0  0  0  0  0  0
    1.6026    1.7055   -3.8418 C   0  0  0  0  0  0  0  0  0  0  0  0
    2.4808    0.6461   -3.6578 C   0  0  0  0  0  0  0  0  0  0  0  0
    2.3882   -0.1391   -2.5094 C   0  0  0  0  0  0  0  0  0  0  0  0
    1.4183    0.1201   -1.5165 C   0  0  0  0  0  0  0  0  0  0  0  0
    1.3486   -0.7812   -0.2694 C   0  0  0  0  0  0  0  0  0  0  0  0
    0.8561   -2.1674   -0.7682 C   0  0  0  0  0  0  0  0  0  0  0  0
    0.3632   -0.2202    0.8010 C   0  0  0  0  0  0  0  0  0  0  0  0
    2.7225   -0.8904    0.4522 C   0  0  0  0  0  0  0  0  0  0  0  0
    3.5286    0.2561    0.6160 C   0  0  0  0  0  0  0  0  0  0  0  0
    4.7558    0.1946    1.2804 C   0  0  0  0  0  0  0  0  0  0  0  0
    5.2018   -1.0118    1.8082 C   0  0  0  0  0  0  0  0  0  0  0  0
    4.4177   -2.1536    1.6768 C   0  0  0  0  0  0  0  0  0  0  0  0
    3.1888   -2.0934    1.0114 C   0  0  0  0  0  0  0  0  0  0  0  0
   -1.6857    1.0915    1.4011 C   0  0  0  0  0  0  0  0  0  0  0  0
   -1.2343    1.2828    2.5232 O   0  0  0  0  0  0  0  0  0  0  0  0
   -2.9271    1.4910    0.9986 O   0  0  0  0  0  0  0  0  0  0  0  0
   -3.7343    2.1479    1.9879 C   0  0  0  0  0  0  0  0  0  0  0  0
   -3.4360    3.6351    1.9987 C   0  0  0  0  0  0  0  0  0  0  0  0
   -4.6778   -1.9196    1.2678 H   0  0  0  0  0  0  0  0  0  0  0  0
   -4.7143   -1.2614   -0.3625 H   0  0  0  0  0  0  0  0  0  0  0  0
   -5.1858   -2.9532   -0.0896 H   0  0  0  0  0  0  0  0  0  0  0  0
   -2.8588   -3.5039    0.6043 H   0  0  0  0  0  0  0  0  0  0  0  0
   -2.8511   -2.8502   -1.0319 H   0  0  0  0  0  0  0  0  0  0  0  0
   -0.1736    2.4187   -0.1587 H   0  0  0  0  0  0  0  0  0  0  0  0
   -1.4407    1.8933   -1.2574 H   0  0  0  0  0  0  0  0  0  0  0  0
   -0.0511    2.8058   -3.0417 H   0  0  0  0  0  0  0  0  0  0  0  0
    1.6702    2.3218   -4.7340 H   0  0  0  0  0  0  0  0  0  0  0  0
    3.2395    0.4291   -4.4046 H   0  0  0  0  0  0  0  0  0  0  0  0
    3.0925   -0.9605   -2.3855 H   0  0  0  0  0  0  0  0  0  0  0  0
    0.5513   -2.8152    0.0617 H   0  0  0  0  0  0  0  0  0  0  0  0
    0.0013   -2.0866   -1.4471 H   0  0  0  0  0  0  0  0  0  0  0  0
    1.6368   -2.6984   -1.3274 H   0  0  0  0  0  0  0  0  0  0  0  0
    0.8834    0.5519    1.3891 H   0  0  0  0  0  0  0  0  0  0  0  0
    0.1257   -1.0050    1.5336 H   0  0  0  0  0  0  0  0  0  0  0  0
    3.2045    1.2186    0.2233 H   0  0  0  0  0  0  0  0  0  0  0  0
    5.3592    1.0923    1.3866 H   0  0  0  0  0  0  0  0  0  0  0  0
    6.1552   -1.0609    2.3270 H   0  0  0  0  0  0  0  0  0  0  0  0
    4.7591   -3.0960    2.0976 H   0  0  0  0  0  0  0  0  0  0  0  0
    2.6080   -3.0093    0.9501 H   0  0  0  0  0  0  0  0  0  0  0  0
   -3.5926    1.7012    2.9786 H   0  0  0  0  0  0  0  0  0  0  0  0
   -4.7798    1.9833    1.7074 H   0  0  0  0  0  0  0  0  0  0  0  0
   -3.5840    4.0638    1.0021 H   0  0  0  0  0  0  0  0  0  0  0  0
   -4.0859    4.1560    2.7074 H   0  0  0  0  0  0  0  0  0  0  0  0
   -2.3940    3.8251    2.2748 H   0  0  0  0  0  0  0  0  0  0  0  0
  1  2  1  0
  2  3  1  0
  3  4  1  0
  4  5  2  0
  4  6  1  0
  6  7  1  0
  7  8  1  0
  8  9  2  0
  9 10  1  0
 10 11  2  0
 11 12  1  0
 12 13  2  0
 13 14  1  0
 14 15  1  0
 14 16  1  0
 14 17  1  0
 17 18  2  0
 18 19  1  0
 19 20  2  0
 20 21  1  0
 21 22  2  0
  6 23  1  0
 23 24  2  0
 23 25  1  0
 25 26  1  0
 26 27  1  0
 16  6  1  0
 13  8  1  0
 22 17  1  0
  1 28  1  0
  1 29  1  0
  1 30  1  0
  2 31  1  0
  2 32  1  0
  7 33  1  0
  7 34  1  0
  9 35  1  0
 10 36  1  0
 11 37  1  0
 12 38  1  0
 15 39  1  0
 15 40  1  0
 15 41  1  0
 16 42  1  0
 16 43  1  0
 18 44  1  0
 19 45  1  0
 20 46  1  0
 21 47  1  0
 22 48  1  0
 26 49  1  0
 26 50  1  0
 27 51  1  0
 27 52  1  0
 27 53  1  0
M  END
>  <Unnamed: 0>  (236) 
1541

>  <ID>  (236) 
TRAIN_1541

>  <Canonical_Smiles>  (236) 
CCOC(=O)C1(Cc2ccccc2C(C)(C1)c3ccccc3)C(=O)OCC

>  <Inhibition>  (236) 
58.341296

>  <TDC_conf_true_inhibitor>  (236) 
0

>  <TDC_conf_non_inhibitor>  (236) 
0

>  <split>  (236) 
1

$$$$
236
     RDKit          3D

 42 45  0  0  0  0  0  0  0  0999 V2000
   -5.4460   -2.4994   -0.7589 C   0  0  0  0  0  0  0  0  0  0  0  0
   -4.5186   -1.3826   -0.3825 C   0  0  0  0  0  0  0  0  0  0  0  0
   -3.2911   -1.6554    0.2284 C   0  0  0  0  0  0  0  0  0  0  0  0
   -2.4385   -0.6140    0.6052 C   0  0  0  0  0  0  0  0  0  0  0  0
   -2.7958    0.7266    0.3827 C   0  0  0  0  0  0  0  0  0  0  0  0
   -4.0416    0.9910   -0.2089 C   0  0  0  0  0  0  0  0  0  0  0  0
   -4.8935   -0.0511   -0.5849 C   0  0  0  0  0  0  0  0  0  0  0  0
   -1.9055    1.8840    0.7879 C   0  0  0  0  0  0  0  0  0  0  0  0
   -2.0041    2.1160    2.6260 S   0  0  0  0  0  0  0  0  0  0  0  0
   -0.3160    1.4938    2.9228 C   0  0  0  0  0  0  0  0  0  0  0  0
    0.3770    1.9311    1.6633 C   0  0  0  0  0  0  0  0  0  0  0  0
   -0.4831    1.6769    0.5454 N   0  0  0  0  0  0  0  0  0  0  0  0
    0.2489    1.3403   -0.5903 C   0  0  0  0  0  0  0  0  0  0  0  0
   -0.4025    1.2964   -2.1247 S   0  0  0  0  0  0  0  0  0  0  0  0
    1.5347    1.0000   -0.1418 N   0  0  0  0  0  0  0  0  0  0  0  0
    1.6304    1.2055    1.2318 C   0  0  0  0  0  0  0  0  0  0  0  0
    2.5624    1.0053    1.9996 O   0  0  0  0  0  0  0  0  0  0  0  0
    2.6052    0.5479   -0.9239 C   0  0  0  0  0  0  0  0  0  0  0  0
    2.8906    0.8430   -2.2824 C   0  0  0  0  0  0  0  0  0  0  0  0
    4.0221    0.2897   -2.7170 N   0  0  0  0  0  0  0  0  0  0  0  0
    4.4796   -0.3737   -1.6469 N   0  0  0  0  0  0  0  0  0  0  0  0
    5.7298   -1.0914   -1.7569 C   0  0  0  0  0  0  0  0  0  0  0  0
    3.6473   -0.2981   -0.5547 C   0  0  0  0  0  0  0  0  0  0  0  0
    3.9227   -1.0809    0.6814 C   0  0  0  0  0  0  0  0  0  0  0  0
   -6.0567   -2.2250   -1.6255 H   0  0  0  0  0  0  0  0  0  0  0  0
   -6.1079   -2.7350    0.0802 H   0  0  0  0  0  0  0  0  0  0  0  0
   -4.8840   -3.3993   -1.0303 H   0  0  0  0  0  0  0  0  0  0  0  0
   -2.9883   -2.6836    0.4140 H   0  0  0  0  0  0  0  0  0  0  0  0
   -1.4910   -0.8640    1.0748 H   0  0  0  0  0  0  0  0  0  0  0  0
   -4.3619    2.0163   -0.3836 H   0  0  0  0  0  0  0  0  0  0  0  0
   -5.8529    0.1853   -1.0399 H   0  0  0  0  0  0  0  0  0  0  0  0
   -2.2006    2.8141    0.2905 H   0  0  0  0  0  0  0  0  0  0  0  0
    0.1231    1.9365    3.8206 H   0  0  0  0  0  0  0  0  0  0  0  0
   -0.3373    0.4057    3.0370 H   0  0  0  0  0  0  0  0  0  0  0  0
    0.6033    3.0065    1.6798 H   0  0  0  0  0  0  0  0  0  0  0  0
    2.3497    1.4719   -2.9759 H   0  0  0  0  0  0  0  0  0  0  0  0
    6.2893   -0.7153   -2.6177 H   0  0  0  0  0  0  0  0  0  0  0  0
    6.3127   -0.9284   -0.8473 H   0  0  0  0  0  0  0  0  0  0  0  0
    5.5029   -2.1519   -1.8894 H   0  0  0  0  0  0  0  0  0  0  0  0
    4.5673   -0.5148    1.3604 H   0  0  0  0  0  0  0  0  0  0  0  0
    4.4229   -2.0280    0.4534 H   0  0  0  0  0  0  0  0  0  0  0  0
    2.9948   -1.3441    1.1981 H   0  0  0  0  0  0  0  0  0  0  0  0
  1  2  1  0
  2  3  2  0
  3  4  1  0
  4  5  2  0
  5  6  1  0
  6  7  2  0
  5  8  1  0
  8  9  1  0
  9 10  1  0
 10 11  1  0
 11 12  1  0
 12 13  1  0
 13 14  2  0
 13 15  1  0
 15 16  1  0
 16 17  2  0
 15 18  1  0
 18 19  1  0
 19 20  2  0
 20 21  1  0
 21 22  1  0
 21 23  1  0
 23 24  1  0
  7  2  1  0
 12  8  1  0
 16 11  1  0
 23 18  2  0
  1 25  1  0
  1 26  1  0
  1 27  1  0
  3 28  1  0
  4 29  1  0
  6 30  1  0
  7 31  1  0
  8 32  1  0
 10 33  1  0
 10 34  1  0
 11 35  1  0
 19 36  1  0
 22 37  1  0
 22 38  1  0
 22 39  1  0
 24 40  1  0
 24 41  1  0
 24 42  1  0
M  END
>  <Unnamed: 0>  (237) 
1568

>  <ID>  (237) 
TRAIN_1568

>  <Canonical_Smiles>  (237) 
Cc1ccc(cc1)C2SCC3N2C(=S)N(C3=O)c4cnn(C)c4C

>  <Inhibition>  (237) 
64.89759

>  <TDC_conf_true_inhibitor>  (237) 
1

>  <TDC_conf_non_inhibitor>  (237) 
0

>  <split>  (237) 
1

$$$$
237
     RDKit          3D

 26 27  0  0  0  0  0  0  0  0999 V2000
   -3.6934   -0.0135    0.6483 C   0  0  0  0  0  0  0  0  0  0  0  0
   -2.2708    0.3050    0.1816 C   0  0  0  0  0  0  0  0  0  0  0  0
   -2.2389    0.3987   -1.3459 C   0  0  0  0  0  0  0  0  0  0  0  0
   -1.2932   -0.7576    0.7190 C   0  0  0  0  0  0  0  0  0  0  0  0
    0.1478   -0.4113    0.5035 C   0  0  0  0  0  0  0  0  0  0  0  0
    0.7245    0.5294    1.2753 N   0  0  0  0  0  0  0  0  0  0  0  0
    1.9901    0.5775    0.8147 N   0  0  0  0  0  0  0  0  0  0  0  0
    2.9520    1.4295    1.3292 C   0  0  0  0  0  0  0  0  0  0  0  0
    4.1623    1.4324    0.8446 N   0  0  0  0  0  0  0  0  0  0  0  0
    4.4874    0.5394   -0.2311 N   0  0  0  0  0  0  0  0  0  0  0  0
    3.5682   -0.2458   -0.6917 C   0  0  0  0  0  0  0  0  0  0  0  0
    3.8344   -1.0921   -1.6944 O   0  0  0  0  0  0  0  0  0  0  0  0
    2.2482   -0.2833   -0.2001 C   0  0  0  0  0  0  0  0  0  0  0  0
    1.0744   -0.9468   -0.4295 C   0  0  0  0  0  0  0  0  0  0  0  0
    0.7132   -2.2788   -1.6926 Br  0  0  0  0  0  0  0  0  0  0  0  0
   -3.7477   -0.0390    1.7418 H   0  0  0  0  0  0  0  0  0  0  0  0
   -4.0282   -0.9850    0.2688 H   0  0  0  0  0  0  0  0  0  0  0  0
   -4.3979    0.7484    0.2982 H   0  0  0  0  0  0  0  0  0  0  0  0
   -1.9972    1.2875    0.5877 H   0  0  0  0  0  0  0  0  0  0  0  0
   -2.9698    1.1319   -1.7039 H   0  0  0  0  0  0  0  0  0  0  0  0
   -1.2557    0.7182   -1.7048 H   0  0  0  0  0  0  0  0  0  0  0  0
   -2.4755   -0.5655   -1.8084 H   0  0  0  0  0  0  0  0  0  0  0  0
   -1.5227   -1.7337    0.2754 H   0  0  0  0  0  0  0  0  0  0  0  0
   -1.4508   -0.8791    1.7996 H   0  0  0  0  0  0  0  0  0  0  0  0
    2.6724    2.1025    2.1541 H   0  0  0  0  0  0  0  0  0  0  0  0
    4.7669   -0.9691   -1.9396 H   0  0  0  0  0  0  0  0  0  0  0  0
  1  2  1  0
  2  3  1  0
  2  4  1  0
  4  5  1  0
  5  6  2  0
  6  7  1  0
  7  8  1  0
  8  9  2  0
  9 10  1  0
 10 11  2  0
 11 12  1  0
 11 13  1  0
 13 14  2  0
 14 15  1  0
 14  5  1  0
 13  7  1  0
  1 16  1  0
  1 17  1  0
  1 18  1  0
  2 19  1  0
  3 20  1  0
  3 21  1  0
  3 22  1  0
  4 23  1  0
  4 24  1  0
  8 25  1  0
 12 26  1  0
M  END
>  <Unnamed: 0>  (238) 
1570

>  <ID>  (238) 
TRAIN_1570

>  <Canonical_Smiles>  (238) 
CC(C)Cc1nn2cnnc(O)c2c1Br

>  <Inhibition>  (238) 
10.461581

>  <TDC_conf_true_inhibitor>  (238) 
0

>  <TDC_conf_non_inhibitor>  (238) 
1

>  <split>  (238) 
1

$$$$
238
     RDKit          3D

 50 52  0  0  0  0  0  0  0  0999 V2000
    6.3275    0.3713   -1.1311 C   0  0  0  0  0  0  0  0  0  0  0  0
    5.8803   -0.2418    0.1968 C   0  0  0  0  0  0  0  0  0  0  0  0
    6.1626   -1.7444    0.2351 C   0  0  0  0  0  0  0  0  0  0  0  0
    4.4346    0.0739    0.5111 C   0  0  0  0  0  0  0  0  0  0  0  0
    3.9475    0.8055    1.5770 C   0  0  0  0  0  0  0  0  0  0  0  0
    2.5117    0.9208    1.5826 C   0  0  0  0  0  0  0  0  0  0  0  0
    1.6817    1.6215    2.5612 C   0  0  0  0  0  0  0  0  0  0  0  0
    0.4723    1.7844    2.4236 O   0  0  0  0  0  0  0  0  0  0  0  0
    2.3114    2.0838    3.6809 N   0  0  0  0  0  0  0  0  0  0  0  0
    1.9714    0.2690    0.4814 C   0  0  0  0  0  0  0  0  0  0  0  0
    0.6214    0.1846    0.1684 N   0  0  0  0  0  0  0  0  0  0  0  0
    0.0468   -0.4080   -0.9391 C   0  0  0  0  0  0  0  0  0  0  0  0
    0.6276   -0.9455   -1.8767 O   0  0  0  0  0  0  0  0  0  0  0  0
   -1.4666   -0.3261   -0.9344 C   0  0  0  0  0  0  0  0  0  0  0  0
   -2.0550   -0.3460   -2.1500 C   0  0  0  0  0  0  0  0  0  0  0  0
   -3.4951   -0.3078   -2.4394 C   0  0  0  0  0  0  0  0  0  0  0  0
   -3.9983    0.7122   -3.2556 C   0  0  0  0  0  0  0  0  0  0  0  0
   -5.3599    0.7657   -3.5616 C   0  0  0  0  0  0  0  0  0  0  0  0
   -6.2259   -0.2051   -3.0614 C   0  0  0  0  0  0  0  0  0  0  0  0
   -5.7310   -1.2323   -2.2599 C   0  0  0  0  0  0  0  0  0  0  0  0
   -4.3694   -1.2873   -1.9543 C   0  0  0  0  0  0  0  0  0  0  0  0
   -2.2245   -0.2579    0.3316 C   0  0  0  0  0  0  0  0  0  0  0  0
   -2.9964    0.8662    0.6535 C   0  0  0  0  0  0  0  0  0  0  0  0
   -3.6908    0.9220    1.8633 C   0  0  0  0  0  0  0  0  0  0  0  0
   -3.6167   -0.1417    2.7610 C   0  0  0  0  0  0  0  0  0  0  0  0
   -2.8488   -1.2630    2.4518 C   0  0  0  0  0  0  0  0  0  0  0  0
   -2.1539   -1.3214    1.2425 C   0  0  0  0  0  0  0  0  0  0  0  0
    3.1554   -0.4684   -0.4822 S   0  0  0  0  0  0  0  0  0  0  0  0
    5.8110   -0.0801   -1.9852 H   0  0  0  0  0  0  0  0  0  0  0  0
    7.4028    0.2243   -1.2794 H   0  0  0  0  0  0  0  0  0  0  0  0
    6.1305    1.4489   -1.1524 H   0  0  0  0  0  0  0  0  0  0  0  0
    6.4945    0.2183    0.9835 H   0  0  0  0  0  0  0  0  0  0  0  0
    5.8476   -2.1791    1.1903 H   0  0  0  0  0  0  0  0  0  0  0  0
    7.2344   -1.9371    0.1165 H   0  0  0  0  0  0  0  0  0  0  0  0
    5.6397   -2.2800   -0.5648 H   0  0  0  0  0  0  0  0  0  0  0  0
    4.6047    1.2472    2.3151 H   0  0  0  0  0  0  0  0  0  0  0  0
    1.7189    2.4766    4.3999 H   0  0  0  0  0  0  0  0  0  0  0  0
    3.2479    1.8111    3.9338 H   0  0  0  0  0  0  0  0  0  0  0  0
    0.0086    0.6603    0.8310 H   0  0  0  0  0  0  0  0  0  0  0  0
   -1.4362   -0.3855   -3.0469 H   0  0  0  0  0  0  0  0  0  0  0  0
   -3.3341    1.4753   -3.6550 H   0  0  0  0  0  0  0  0  0  0  0  0
   -5.7433    1.5638   -4.1918 H   0  0  0  0  0  0  0  0  0  0  0  0
   -7.2855   -0.1641   -3.2996 H   0  0  0  0  0  0  0  0  0  0  0  0
   -6.4031   -1.9938   -1.8734 H   0  0  0  0  0  0  0  0  0  0  0  0
   -3.9980   -2.1010   -1.3361 H   0  0  0  0  0  0  0  0  0  0  0  0
   -3.0634    1.7055   -0.0352 H   0  0  0  0  0  0  0  0  0  0  0  0
   -4.2886    1.7971    2.1043 H   0  0  0  0  0  0  0  0  0  0  0  0
   -4.1575   -0.0956    3.7027 H   0  0  0  0  0  0  0  0  0  0  0  0
   -2.7906   -2.0921    3.1521 H   0  0  0  0  0  0  0  0  0  0  0  0
   -1.5599   -2.2043    1.0143 H   0  0  0  0  0  0  0  0  0  0  0  0
  1  2  1  0
  2  3  1  0
  2  4  1  0
  4  5  2  0
  5  6  1  0
  6  7  1  0
  7  8  2  0
  7  9  1  0
  6 10  2  0
 10 11  1  0
 11 12  1  0
 12 13  2  0
 12 14  1  0
 14 15  2  0
 15 16  1  0
 16 17  2  0
 17 18  1  0
 18 19  2  0
 19 20  1  0
 20 21  2  0
 14 22  1  0
 22 23  2  0
 23 24  1  0
 24 25  2  0
 25 26  1  0
 26 27  2  0
 10 28  1  0
 28  4  1  0
 21 16  1  0
 27 22  1  0
  1 29  1  0
  1 30  1  0
  1 31  1  0
  2 32  1  0
  3 33  1  0
  3 34  1  0
  3 35  1  0
  5 36  1  0
  9 37  1  0
  9 38  1  0
 11 39  1  0
 15 40  1  0
 17 41  1  0
 18 42  1  0
 19 43  1  0
 20 44  1  0
 21 45  1  0
 23 46  1  0
 24 47  1  0
 25 48  1  0
 26 49  1  0
 27 50  1  0
M  END
>  <Unnamed: 0>  (239) 
1575

>  <ID>  (239) 
TRAIN_1575

>  <Canonical_Smiles>  (239) 
CC(C)c1cc(C(=O)N)c(NC(=O)\C(=C\c2ccccc2)\c3ccccc3)s1

>  <Inhibition>  (239) 
22.795893

>  <TDC_conf_true_inhibitor>  (239) 
1

>  <TDC_conf_non_inhibitor>  (239) 
0

>  <split>  (239) 
1

$$$$
239
     RDKit          3D

 50 55  0  0  0  0  0  0  0  0999 V2000
    6.9271   -0.6407   -1.5252 C   0  0  0  0  0  0  0  0  0  0  0  0
    6.0944   -1.4589   -0.5361 C   0  0  0  0  0  0  0  0  0  0  0  0
    6.8739   -1.6886    0.7603 C   0  0  0  0  0  0  0  0  0  0  0  0
    4.7613   -0.8176   -0.2732 C   0  0  0  0  0  0  0  0  0  0  0  0
    4.4913    0.4494    0.3016 C   0  0  0  0  0  0  0  0  0  0  0  0
    3.1195    0.5562    0.3185 C   0  0  0  0  0  0  0  0  0  0  0  0
    2.6566   -0.6095   -0.2269 N   0  0  0  0  0  0  0  0  0  0  0  0
    3.6295   -1.4597   -0.5941 N   0  0  0  0  0  0  0  0  0  0  0  0
    2.2784    1.6051    0.7799 C   0  0  0  0  0  0  0  0  0  0  0  0
    2.6834    2.7504    1.3146 N   0  0  0  0  0  0  0  0  0  0  0  0
    1.5578    3.5119    1.6375 N   0  0  0  0  0  0  0  0  0  0  0  0
    0.5356    2.7892    1.2822 C   0  0  0  0  0  0  0  0  0  0  0  0
   -1.1639    2.9126    1.2991 S   0  0  0  0  0  0  0  0  0  0  0  0
   -1.1847    1.2815    0.5505 C   0  0  0  0  0  0  0  0  0  0  0  0
   -0.0270    0.7155    0.3180 N   0  0  0  0  0  0  0  0  0  0  0  0
    0.9097    1.6069    0.7487 N   0  0  0  0  0  0  0  0  0  0  0  0
   -2.5255    0.6285    0.2197 C   0  0  0  0  0  0  0  0  0  0  0  0
   -2.2951   -0.7709   -0.4168 C   0  0  0  0  0  0  0  0  0  0  0  0
   -3.6313   -1.4492   -0.7591 C   0  0  0  0  0  0  0  0  0  0  0  0
   -4.4564   -1.6132    0.5265 C   0  0  0  0  0  0  0  0  0  0  0  0
   -4.7199   -0.2381    1.1588 C   0  0  0  0  0  0  0  0  0  0  0  0
   -5.4867    0.6421    0.1570 C   0  0  0  0  0  0  0  0  0  0  0  0
   -4.6664    0.8133   -1.1332 C   0  0  0  0  0  0  0  0  0  0  0  0
   -4.4033   -0.5677   -1.7528 C   0  0  0  0  0  0  0  0  0  0  0  0
   -3.3237    1.4846   -0.7938 C   0  0  0  0  0  0  0  0  0  0  0  0
   -3.3771    0.4334    1.4980 C   0  0  0  0  0  0  0  0  0  0  0  0
    7.1735    0.3489   -1.1243 H   0  0  0  0  0  0  0  0  0  0  0  0
    7.8669   -1.1529   -1.7577 H   0  0  0  0  0  0  0  0  0  0  0  0
    6.3837   -0.4926   -2.4651 H   0  0  0  0  0  0  0  0  0  0  0  0
    5.9216   -2.4436   -0.9917 H   0  0  0  0  0  0  0  0  0  0  0  0
    6.2921   -2.2942    1.4642 H   0  0  0  0  0  0  0  0  0  0  0  0
    7.1181   -0.7433    1.2579 H   0  0  0  0  0  0  0  0  0  0  0  0
    7.8129   -2.2156    0.5601 H   0  0  0  0  0  0  0  0  0  0  0  0
    5.2015    1.1846    0.6554 H   0  0  0  0  0  0  0  0  0  0  0  0
    1.6902   -0.8854   -0.3760 H   0  0  0  0  0  0  0  0  0  0  0  0
   -1.6891   -0.6795   -1.3282 H   0  0  0  0  0  0  0  0  0  0  0  0
   -1.7263   -1.4124    0.2696 H   0  0  0  0  0  0  0  0  0  0  0  0
   -3.4436   -2.4321   -1.2056 H   0  0  0  0  0  0  0  0  0  0  0  0
   -5.4076   -2.1106    0.3005 H   0  0  0  0  0  0  0  0  0  0  0  0
   -3.9217   -2.2562    1.2363 H   0  0  0  0  0  0  0  0  0  0  0  0
   -5.3123   -0.3596    2.0726 H   0  0  0  0  0  0  0  0  0  0  0  0
   -6.4571    0.1862   -0.0748 H   0  0  0  0  0  0  0  0  0  0  0  0
   -5.6943    1.6230    0.6020 H   0  0  0  0  0  0  0  0  0  0  0  0
   -5.2210    1.4367   -1.8435 H   0  0  0  0  0  0  0  0  0  0  0  0
   -5.3536   -1.0467   -2.0190 H   0  0  0  0  0  0  0  0  0  0  0  0
   -3.8303   -0.4589   -2.6819 H   0  0  0  0  0  0  0  0  0  0  0  0
   -3.5211    2.4860   -0.3921 H   0  0  0  0  0  0  0  0  0  0  0  0
   -2.7359    1.6319   -1.7093 H   0  0  0  0  0  0  0  0  0  0  0  0
   -3.5765    1.3946    1.9872 H   0  0  0  0  0  0  0  0  0  0  0  0
   -2.8277   -0.1745    2.2288 H   0  0  0  0  0  0  0  0  0  0  0  0
  1  2  1  0
  2  3  1  0
  2  4  1  0
  4  5  1  0
  5  6  2  0
  6  7  1  0
  7  8  1  0
  6  9  1  0
  9 10  2  0
 10 11  1  0
 11 12  2  0
 12 13  1  0
 13 14  1  0
 14 15  2  0
 15 16  1  0
 14 17  1  0
 17 18  1  0
 18 19  1  0
 19 20  1  0
 20 21  1  0
 21 22  1  0
 22 23  1  0
 23 24  1  0
 23 25  1  0
 21 26  1  0
  8  4  2  0
 16  9  1  0
 16 12  1  0
 25 17  1  0
 26 17  1  0
 24 19  1  0
  1 27  1  0
  1 28  1  0
  1 29  1  0
  2 30  1  0
  3 31  1  0
  3 32  1  0
  3 33  1  0
  5 34  1  0
  7 35  1  0
 18 36  1  0
 18 37  1  0
 19 38  1  0
 20 39  1  0
 20 40  1  0
 21 41  1  0
 22 42  1  0
 22 43  1  0
 23 44  1  0
 24 45  1  0
 24 46  1  0
 25 47  1  0
 25 48  1  0
 26 49  1  0
 26 50  1  0
M  END
>  <Unnamed: 0>  (240) 
1578

>  <ID>  (240) 
TRAIN_1578

>  <Canonical_Smiles>  (240) 
CC(C)c1cc([nH]n1)c2nnc3sc(nn23)C45CC6CC(CC(C6)C4)C5

>  <Inhibition>  (240) 
35.300453

>  <TDC_conf_true_inhibitor>  (240) 
1

>  <TDC_conf_non_inhibitor>  (240) 
0

>  <split>  (240) 
1

$$$$
240
     RDKit          3D

 41 45  0  0  0  0  0  0  0  0999 V2000
   -5.6276    2.3556   -1.5688 F   0  0  0  0  0  0  0  0  0  0  0  0
   -4.8099    1.4796   -0.9704 C   0  0  0  0  0  0  0  0  0  0  0  0
   -4.8573    0.1388   -1.3363 C   0  0  0  0  0  0  0  0  0  0  0  0
   -4.0045   -0.7730   -0.7128 C   0  0  0  0  0  0  0  0  0  0  0  0
   -3.1009   -0.3318    0.2644 C   0  0  0  0  0  0  0  0  0  0  0  0
   -3.0758    1.0171    0.6386 C   0  0  0  0  0  0  0  0  0  0  0  0
   -3.9305    1.9261    0.0112 C   0  0  0  0  0  0  0  0  0  0  0  0
   -2.2425   -1.3420    0.9269 C   0  0  0  0  0  0  0  0  0  0  0  0
   -2.7656   -2.4073    1.2666 O   0  0  0  0  0  0  0  0  0  0  0  0
   -0.7871   -1.0363    1.2974 C   0  0  0  0  0  0  0  0  0  0  0  0
    0.1610   -2.2071    1.0549 C   0  0  0  0  0  0  0  0  0  0  0  0
    1.5852   -1.6117    1.2040 C   0  0  0  0  0  0  0  0  0  0  0  0
    1.3777   -0.0899    1.2685 C   0  0  0  0  0  0  0  0  0  0  0  0
   -0.0056    0.1002    0.8078 N   0  0  0  0  0  0  0  0  0  0  0  0
   -0.2554    0.4878   -0.4910 N   0  0  0  0  0  0  0  0  0  0  0  0
    0.6598    1.1628   -1.1197 C   0  0  0  0  0  0  0  0  0  0  0  0
    1.9936    1.4489   -0.5874 C   0  0  0  0  0  0  0  0  0  0  0  0
    2.8697    2.2916   -1.2704 C   0  0  0  0  0  0  0  0  0  0  0  0
    4.1442    2.5095   -0.7491 C   0  0  0  0  0  0  0  0  0  0  0  0
    4.5315    1.8818    0.4370 C   0  0  0  0  0  0  0  0  0  0  0  0
    3.6469    1.0344    1.1093 C   0  0  0  0  0  0  0  0  0  0  0  0
    2.3642    0.8123    0.5968 C   0  0  0  0  0  0  0  0  0  0  0  0
    2.2871   -2.0841   -0.0369 C   0  0  0  0  0  0  0  0  0  0  0  0
    3.4913   -2.0438   -0.2300 O   0  0  0  0  0  0  0  0  0  0  0  0
    1.3773   -2.5832   -0.9043 N   0  0  0  0  0  0  0  0  0  0  0  0
    0.1336   -2.6958   -0.3748 C   0  0  0  0  0  0  0  0  0  0  0  0
   -0.8194   -3.1706   -0.9688 O   0  0  0  0  0  0  0  0  0  0  0  0
   -5.5555   -0.1887   -2.0996 H   0  0  0  0  0  0  0  0  0  0  0  0
   -4.0373   -1.8254   -0.9893 H   0  0  0  0  0  0  0  0  0  0  0  0
   -2.3929    1.3720    1.4051 H   0  0  0  0  0  0  0  0  0  0  0  0
   -3.9152    2.9772    0.2806 H   0  0  0  0  0  0  0  0  0  0  0  0
   -0.8377   -0.8677    2.3846 H   0  0  0  0  0  0  0  0  0  0  0  0
   -0.0100   -3.0547    1.7262 H   0  0  0  0  0  0  0  0  0  0  0  0
    2.1019   -1.9978    2.0886 H   0  0  0  0  0  0  0  0  0  0  0  0
    1.3464    0.2001    2.3290 H   0  0  0  0  0  0  0  0  0  0  0  0
    0.4275    1.5242   -2.1353 H   0  0  0  0  0  0  0  0  0  0  0  0
    2.5749    2.7751   -2.1972 H   0  0  0  0  0  0  0  0  0  0  0  0
    4.8413    3.1626   -1.2687 H   0  0  0  0  0  0  0  0  0  0  0  0
    5.5303    2.0471    0.8350 H   0  0  0  0  0  0  0  0  0  0  0  0
    3.9717    0.5457    2.0250 H   0  0  0  0  0  0  0  0  0  0  0  0
    1.6133   -2.9397   -1.8165 H   0  0  0  0  0  0  0  0  0  0  0  0
  1  2  1  0
  2  3  2  0
  3  4  1  0
  4  5  2  0
  5  6  1  0
  6  7  2  0
  5  8  1  0
  8  9  2  0
  8 10  1  0
 10 11  1  0
 11 12  1  0
 12 13  1  0
 13 14  1  0
 14 15  1  0
 15 16  2  0
 16 17  1  0
 17 18  2  0
 18 19  1  0
 19 20  2  0
 20 21  1  0
 21 22  2  0
 12 23  1  0
 23 24  2  0
 23 25  1  0
 25 26  1  0
 26 27  2  0
  7  2  1  0
 14 10  1  0
 26 11  1  0
 22 13  1  0
 22 17  1  0
  3 28  1  0
  4 29  1  0
  6 30  1  0
  7 31  1  0
 10 32  1  0
 11 33  1  0
 12 34  1  0
 13 35  1  0
 16 36  1  0
 18 37  1  0
 19 38  1  0
 20 39  1  0
 21 40  1  0
 25 41  1  0
M  END
>  <Unnamed: 0>  (241) 
1582

>  <ID>  (241) 
TRAIN_1582

>  <Canonical_Smiles>  (241) 
Fc1ccc(cc1)C(=O)C2C3C(C4N2N=Cc5ccccc45)C(=O)NC3=O

>  <Inhibition>  (241) 
0.5

>  <TDC_conf_true_inhibitor>  (241) 
0

>  <TDC_conf_non_inhibitor>  (241) 
1

>  <split>  (241) 
1

$$$$
241
     RDKit          3D

 45 47  0  0  0  0  0  0  0  0999 V2000
    3.7462   -5.5360    0.6070 C   0  0  0  0  0  0  0  0  0  0  0  0
    3.3236   -4.2292    0.2157 O   0  0  0  0  0  0  0  0  0  0  0  0
    2.6531   -3.5552    1.1839 C   0  0  0  0  0  0  0  0  0  0  0  0
    2.4105   -3.9725    2.3055 O   0  0  0  0  0  0  0  0  0  0  0  0
    2.2431   -2.2085    0.7005 C   0  0  0  0  0  0  0  0  0  0  0  0
    2.5253   -1.7541   -0.5929 C   0  0  0  0  0  0  0  0  0  0  0  0
    2.1130   -0.4803   -0.9983 C   0  0  0  0  0  0  0  0  0  0  0  0
    1.4153    0.3650   -0.1206 C   0  0  0  0  0  0  0  0  0  0  0  0
    1.1323   -0.1023    1.1728 C   0  0  0  0  0  0  0  0  0  0  0  0
    1.5442   -1.3744    1.5803 C   0  0  0  0  0  0  0  0  0  0  0  0
    0.9519    1.7216   -0.6063 C   0  0  0  0  0  0  0  0  0  0  0  0
    0.7816    2.7034    0.4748 N   0  0  0  0  0  0  0  0  0  0  0  0
   -0.1992    3.6777    0.0488 N   0  0  0  0  0  0  0  0  0  0  0  0
    0.4432    4.8025   -0.6371 C   0  0  0  0  0  0  0  0  0  0  0  0
   -1.1174    2.9513   -0.8410 C   0  0  0  0  0  0  0  0  0  0  0  0
   -0.3578    1.7568   -1.3888 C   0  0  0  0  0  0  0  0  0  0  0  0
   -1.3018    0.6172   -1.1416 C   0  0  0  0  0  0  0  0  0  0  0  0
   -1.2517   -0.4400   -1.7556 O   0  0  0  0  0  0  0  0  0  0  0  0
   -2.2170    0.9750   -0.1941 N   0  0  0  0  0  0  0  0  0  0  0  0
   -3.2835    0.1088    0.3074 C   0  0  0  0  0  0  0  0  0  0  0  0
   -4.3459   -0.1478   -0.7623 C   0  0  0  0  0  0  0  0  0  0  0  0
   -2.7457   -1.2053    0.8746 C   0  0  0  0  0  0  0  0  0  0  0  0
   -2.2573    2.3378   -0.0447 C   0  0  0  0  0  0  0  0  0  0  0  0
   -3.1159    2.9720    0.5557 O   0  0  0  0  0  0  0  0  0  0  0  0
    2.8823   -6.1602    0.8564 H   0  0  0  0  0  0  0  0  0  0  0  0
    4.4403   -5.4778    1.4513 H   0  0  0  0  0  0  0  0  0  0  0  0
    4.2684   -5.9905   -0.2394 H   0  0  0  0  0  0  0  0  0  0  0  0
    3.0575   -2.3834   -1.3020 H   0  0  0  0  0  0  0  0  0  0  0  0
    2.3313   -0.1598   -2.0154 H   0  0  0  0  0  0  0  0  0  0  0  0
    0.5787    0.5168    1.8776 H   0  0  0  0  0  0  0  0  0  0  0  0
    1.3102   -1.7127    2.5883 H   0  0  0  0  0  0  0  0  0  0  0  0
    1.7423    2.1219   -1.2580 H   0  0  0  0  0  0  0  0  0  0  0  0
    1.6759    3.0954    0.7785 H   0  0  0  0  0  0  0  0  0  0  0  0
    1.1400    5.3139    0.0366 H   0  0  0  0  0  0  0  0  0  0  0  0
   -0.3091    5.5420   -0.9333 H   0  0  0  0  0  0  0  0  0  0  0  0
    0.9941    4.4964   -1.5339 H   0  0  0  0  0  0  0  0  0  0  0  0
   -1.5576    3.5703   -1.6321 H   0  0  0  0  0  0  0  0  0  0  0  0
   -0.1760    1.8679   -2.4638 H   0  0  0  0  0  0  0  0  0  0  0  0
   -3.7735    0.6404    1.1329 H   0  0  0  0  0  0  0  0  0  0  0  0
   -3.9377   -0.7019   -1.6138 H   0  0  0  0  0  0  0  0  0  0  0  0
   -5.1782   -0.7283   -0.3506 H   0  0  0  0  0  0  0  0  0  0  0  0
   -4.7490    0.7963   -1.1444 H   0  0  0  0  0  0  0  0  0  0  0  0
   -2.2964   -1.8368    0.1021 H   0  0  0  0  0  0  0  0  0  0  0  0
   -3.5516   -1.7797    1.3439 H   0  0  0  0  0  0  0  0  0  0  0  0
   -1.9820   -1.0136    1.6357 H   0  0  0  0  0  0  0  0  0  0  0  0
  1  2  1  0
  2  3  1  0
  3  4  2  0
  3  5  1  0
  5  6  2  0
  6  7  1  0
  7  8  2  0
  8  9  1  0
  9 10  2  0
  8 11  1  0
 11 12  1  0
 12 13  1  0
 13 14  1  0
 13 15  1  0
 15 16  1  0
 16 17  1  0
 17 18  2  0
 17 19  1  0
 19 20  1  0
 20 21  1  0
 20 22  1  0
 19 23  1  0
 23 24  2  0
 10  5  1  0
 16 11  1  0
 23 15  1  0
  1 25  1  0
  1 26  1  0
  1 27  1  0
  6 28  1  0
  7 29  1  0
  9 30  1  0
 10 31  1  0
 11 32  1  0
 12 33  1  0
 14 34  1  0
 14 35  1  0
 14 36  1  0
 15 37  1  0
 16 38  1  0
 20 39  1  0
 21 40  1  0
 21 41  1  0
 21 42  1  0
 22 43  1  0
 22 44  1  0
 22 45  1  0
M  END
>  <Unnamed: 0>  (242) 
1596

>  <ID>  (242) 
TRAIN_1596

>  <Canonical_Smiles>  (242) 
COC(=O)c1ccc(cc1)C2NN(C)C3C2C(=O)N(C(C)C)C3=O

>  <Inhibition>  (242) 
4.096381

>  <TDC_conf_true_inhibitor>  (242) 
0

>  <TDC_conf_non_inhibitor>  (242) 
1

>  <split>  (242) 
1

$$$$
242
     RDKit          3D

 36 38  0  0  0  0  0  0  0  0999 V2000
    5.2535    1.7952    0.5361 C   0  0  0  0  0  0  0  0  0  0  0  0
    4.5530    1.4821   -0.7738 C   0  0  0  0  0  0  0  0  0  0  0  0
    3.3976    0.6269   -0.5854 N   0  0  0  0  0  0  0  0  0  0  0  0
    2.1009    1.0212   -0.4785 C   0  0  0  0  0  0  0  0  0  0  0  0
    1.3438   -0.1260   -0.3170 C   0  0  0  0  0  0  0  0  0  0  0  0
    2.3169   -1.1711   -0.3024 C   0  0  0  0  0  0  0  0  0  0  0  0
    2.1373   -2.6280   -0.0721 C   0  0  0  0  0  0  0  0  0  0  0  0
    3.5567   -0.7028   -0.5021 N   0  0  0  0  0  0  0  0  0  0  0  0
   -0.0986   -0.1384   -0.1646 C   0  0  0  0  0  0  0  0  0  0  0  0
   -0.8066   -1.3160   -0.7408 C   0  0  0  0  0  0  0  0  0  0  0  0
   -2.1444   -1.3328   -0.5819 C   0  0  0  0  0  0  0  0  0  0  0  0
   -3.0233   -2.4163   -1.0930 C   0  0  0  0  0  0  0  0  0  0  0  0
   -3.3502   -3.2812   -0.0954 F   0  0  0  0  0  0  0  0  0  0  0  0
   -2.3689   -3.1697   -2.0247 F   0  0  0  0  0  0  0  0  0  0  0  0
   -2.7729   -0.2707    0.0639 N   0  0  0  0  0  0  0  0  0  0  0  0
   -4.1002   -0.0911    0.2826 N   0  0  0  0  0  0  0  0  0  0  0  0
   -4.1914    1.0760    0.9288 C   0  0  0  0  0  0  0  0  0  0  0  0
   -5.5161    1.5910    1.3517 C   0  0  0  0  0  0  0  0  0  0  0  0
   -2.9313    1.6760    1.1139 C   0  0  0  0  0  0  0  0  0  0  0  0
   -2.0271    0.8095    0.5478 C   0  0  0  0  0  0  0  0  0  0  0  0
   -0.6675    0.8730    0.4239 N   0  0  0  0  0  0  0  0  0  0  0  0
    6.1150    2.4467    0.3603 H   0  0  0  0  0  0  0  0  0  0  0  0
    4.5776    2.3019    1.2331 H   0  0  0  0  0  0  0  0  0  0  0  0
    5.6101    0.8811    1.0225 H   0  0  0  0  0  0  0  0  0  0  0  0
    5.2321    0.9744   -1.4676 H   0  0  0  0  0  0  0  0  0  0  0  0
    4.2104    2.4048   -1.2547 H   0  0  0  0  0  0  0  0  0  0  0  0
    1.8120    2.0626   -0.5228 H   0  0  0  0  0  0  0  0  0  0  0  0
    3.0528   -3.0821    0.3227 H   0  0  0  0  0  0  0  0  0  0  0  0
    1.8869   -3.1344   -1.0093 H   0  0  0  0  0  0  0  0  0  0  0  0
    1.3411   -2.8157    0.6547 H   0  0  0  0  0  0  0  0  0  0  0  0
   -0.2711   -2.0885   -1.2735 H   0  0  0  0  0  0  0  0  0  0  0  0
   -3.9407   -2.0485   -1.5612 H   0  0  0  0  0  0  0  0  0  0  0  0
   -6.1630    1.7457    0.4822 H   0  0  0  0  0  0  0  0  0  0  0  0
   -6.0059    0.8824    2.0273 H   0  0  0  0  0  0  0  0  0  0  0  0
   -5.4192    2.5470    1.8762 H   0  0  0  0  0  0  0  0  0  0  0  0
   -2.6992    2.6159    1.5931 H   0  0  0  0  0  0  0  0  0  0  0  0
  1  2  1  0
  2  3  1  0
  3  4  1  0
  4  5  2  0
  5  6  1  0
  6  7  1  0
  6  8  2  0
  5  9  1  0
  9 10  1  0
 10 11  2  0
 11 12  1  0
 12 13  1  0
 12 14  1  0
 11 15  1  0
 15 16  1  0
 16 17  2  0
 17 18  1  0
 17 19  1  0
 19 20  2  0
 20 21  1  0
  8  3  1  0
 21  9  2  0
 20 15  1  0
  1 22  1  0
  1 23  1  0
  1 24  1  0
  2 25  1  0
  2 26  1  0
  4 27  1  0
  7 28  1  0
  7 29  1  0
  7 30  1  0
 10 31  1  0
 12 32  1  0
 18 33  1  0
 18 34  1  0
 18 35  1  0
 19 36  1  0
M  END
>  <Unnamed: 0>  (243) 
1597

>  <ID>  (243) 
TRAIN_1597

>  <Canonical_Smiles>  (243) 
CCn1cc(c(C)n1)c2cc(C(F)F)n3nc(C)cc3n2

>  <Inhibition>  (243) 
0.5

>  <TDC_conf_true_inhibitor>  (243) 
0

>  <TDC_conf_non_inhibitor>  (243) 
1

>  <split>  (243) 
1

$$$$
243
     RDKit          3D

 39 41  0  0  0  0  0  0  0  0999 V2000
    5.3344    2.0425   -1.4711 C   0  0  0  0  0  0  0  0  0  0  0  0
    4.3463    1.0574   -0.9203 C   0  0  0  0  0  0  0  0  0  0  0  0
    4.4757   -0.3078   -1.1989 C   0  0  0  0  0  0  0  0  0  0  0  0
    3.5730   -1.2295   -0.6635 C   0  0  0  0  0  0  0  0  0  0  0  0
    2.5382   -0.8033    0.1782 C   0  0  0  0  0  0  0  0  0  0  0  0
    1.5407   -1.7916    0.7282 C   0  0  0  0  0  0  0  0  0  0  0  0
    0.3714   -1.8746   -0.1445 N   0  0  0  0  0  0  0  0  0  0  0  0
   -0.9193   -2.8296    0.2964 S   0  0  0  0  0  6  0  0  0  0  0  0
   -1.8675   -2.7343   -0.7912 O   0  0  0  0  0  0  0  0  0  0  0  0
   -0.3941   -4.1001    0.7418 O   0  0  0  0  0  0  0  0  0  0  0  0
   -1.6140   -1.9930    1.7067 C   0  0  0  0  0  0  0  0  0  0  0  0
   -2.2325   -0.7172    1.2317 C   0  0  0  0  0  0  0  0  0  0  0  0
   -1.5181    0.3741    1.1953 N   0  0  0  0  0  0  0  0  0  0  0  0
   -2.0783    1.5369    0.6922 C   0  0  0  0  0  0  0  0  0  0  0  0
   -1.4626    2.5931    0.6481 O   0  0  0  0  0  0  0  0  0  0  0  0
   -3.3955    1.5438    0.1885 N   0  0  0  0  0  0  0  0  0  0  0  0
   -4.1109    2.5759   -0.3770 C   0  0  0  0  0  0  0  0  0  0  0  0
   -5.3609    2.1027   -0.7144 C   0  0  0  0  0  0  0  0  0  0  0  0
   -5.4126    0.7389   -0.3360 C   0  0  0  0  0  0  0  0  0  0  0  0
   -4.1889    0.4206    0.2169 C   0  0  0  0  0  0  0  0  0  0  0  0
   -3.6915   -0.7984    0.7837 C   0  0  0  0  0  0  0  0  0  0  0  0
   -4.3300   -1.8192    0.9791 O   0  0  0  0  0  0  0  0  0  0  0  0
    2.4095    0.5648    0.4570 C   0  0  0  0  0  0  0  0  0  0  0  0
    3.3122    1.4850   -0.0804 C   0  0  0  0  0  0  0  0  0  0  0  0
    4.8670    3.0210   -1.6237 H   0  0  0  0  0  0  0  0  0  0  0  0
    5.7169    1.7109   -2.4421 H   0  0  0  0  0  0  0  0  0  0  0  0
    6.1749    2.1556   -0.7794 H   0  0  0  0  0  0  0  0  0  0  0  0
    5.2780   -0.6629   -1.8422 H   0  0  0  0  0  0  0  0  0  0  0  0
    3.6804   -2.2838   -0.9114 H   0  0  0  0  0  0  0  0  0  0  0  0
    2.0079   -2.7777    0.8272 H   0  0  0  0  0  0  0  0  0  0  0  0
    1.2522   -1.4658    1.7326 H   0  0  0  0  0  0  0  0  0  0  0  0
    0.1469   -1.0308   -0.6718 H   0  0  0  0  0  0  0  0  0  0  0  0
   -0.8309   -1.8106    2.4446 H   0  0  0  0  0  0  0  0  0  0  0  0
   -2.3554   -2.6564    2.1580 H   0  0  0  0  0  0  0  0  0  0  0  0
   -3.6625    3.5555   -0.4909 H   0  0  0  0  0  0  0  0  0  0  0  0
   -6.1512    2.6790   -1.1807 H   0  0  0  0  0  0  0  0  0  0  0  0
   -6.2506    0.0606   -0.4521 H   0  0  0  0  0  0  0  0  0  0  0  0
    1.6037    0.9275    1.0929 H   0  0  0  0  0  0  0  0  0  0  0  0
    3.1980    2.5409    0.1566 H   0  0  0  0  0  0  0  0  0  0  0  0
  1  2  1  0
  2  3  2  0
  3  4  1  0
  4  5  2  0
  5  6  1  0
  6  7  1  0
  7  8  1  0
  8  9  2  0
  8 10  2  0
  8 11  1  0
 11 12  1  0
 12 13  2  0
 13 14  1  0
 14 15  2  0
 14 16  1  0
 16 17  1  0
 17 18  2  0
 18 19  1  0
 19 20  2  0
 20 21  1  0
 21 22  2  0
  5 23  1  0
 23 24  2  0
 24  2  1  0
 21 12  1  0
 20 16  1  0
  1 25  1  0
  1 26  1  0
  1 27  1  0
  3 28  1  0
  4 29  1  0
  6 30  1  0
  6 31  1  0
  7 32  1  0
 11 33  1  0
 11 34  1  0
 17 35  1  0
 18 36  1  0
 19 37  1  0
 23 38  1  0
 24 39  1  0
M  END
>  <Unnamed: 0>  (244) 
1599

>  <ID>  (244) 
TRAIN_1599

>  <Canonical_Smiles>  (244) 
Cc1ccc(CNS(=O)(=O)CC2=NC(=O)n3cccc3C2=O)cc1

>  <Inhibition>  (244) 
69.176381

>  <TDC_conf_true_inhibitor>  (244) 
1

>  <TDC_conf_non_inhibitor>  (244) 
0

>  <split>  (244) 
1

$$$$
244
     RDKit          3D

 38 39  0  0  0  0  0  0  0  0999 V2000
    5.9392    1.1406   -0.1259 C   0  0  0  0  0  0  0  0  0  0  0  0
    4.4572    1.0849    0.2367 C   0  0  0  0  0  0  0  0  0  0  0  0
    4.2570    0.4823    1.6284 C   0  0  0  0  0  0  0  0  0  0  0  0
    2.8030    0.2432    1.9492 C   0  0  0  0  0  0  0  0  0  0  0  0
    1.8319    0.1488    1.0181 C   0  0  0  0  0  0  0  0  0  0  0  0
    0.4290   -0.0545    1.4683 C   0  0  0  0  0  0  0  0  0  0  0  0
   -0.5704   -0.1915    0.6594 N   0  0  0  0  0  0  0  0  0  0  0  0
   -1.7758   -0.3684    1.3563 N   0  0  0  0  0  0  0  0  0  0  0  0
   -2.7911   -0.4653    0.5458 C   0  0  0  0  0  0  0  0  0  0  0  0
   -2.6736   -0.3980   -0.8177 N   0  0  0  0  0  0  0  0  0  0  0  0
   -3.7326   -0.4890   -1.6810 C   0  0  0  0  0  0  0  0  0  0  0  0
   -4.9643   -0.6581   -1.1773 C   0  0  0  0  0  0  0  0  0  0  0  0
   -5.0374   -0.7310    0.3150 C   0  0  0  0  0  0  0  0  0  0  0  0
   -4.0264   -0.6421    1.1247 N   0  0  0  0  0  0  0  0  0  0  0  0
   -6.4045   -0.9246    0.9228 C   0  0  0  0  0  0  0  0  0  0  0  0
   -3.4565   -0.3935   -3.1491 C   0  0  0  0  0  0  0  0  0  0  0  0
    2.2004    0.2261   -0.4324 C   0  0  0  0  0  0  0  0  0  0  0  0
    1.3592    0.1943   -1.3300 O   0  0  0  0  0  0  0  0  0  0  0  0
    3.6711    0.2812   -0.7919 C   0  0  0  0  0  0  0  0  0  0  0  0
    2.5129    0.1398    3.3006 O   0  0  0  0  0  0  0  0  0  0  0  0
    6.3804    0.1386   -0.1567 H   0  0  0  0  0  0  0  0  0  0  0  0
    6.4960    1.7335    0.6074 H   0  0  0  0  0  0  0  0  0  0  0  0
    6.0809    1.6028   -1.1084 H   0  0  0  0  0  0  0  0  0  0  0  0
    4.0713    2.1140    0.2462 H   0  0  0  0  0  0  0  0  0  0  0  0
    4.7939   -0.4702    1.7208 H   0  0  0  0  0  0  0  0  0  0  0  0
    4.6889    1.1670    2.3692 H   0  0  0  0  0  0  0  0  0  0  0  0
    0.2631   -0.0871    2.5598 H   0  0  0  0  0  0  0  0  0  0  0  0
   -1.7227   -0.2616   -1.1474 H   0  0  0  0  0  0  0  0  0  0  0  0
   -5.8616   -0.7412   -1.7724 H   0  0  0  0  0  0  0  0  0  0  0  0
   -6.6269   -0.0823    1.5844 H   0  0  0  0  0  0  0  0  0  0  0  0
   -6.4113   -1.8489    1.5079 H   0  0  0  0  0  0  0  0  0  0  0  0
   -7.1816   -0.9857    0.1566 H   0  0  0  0  0  0  0  0  0  0  0  0
   -2.7805   -1.1959   -3.4627 H   0  0  0  0  0  0  0  0  0  0  0  0
   -4.3725   -0.4754   -3.7435 H   0  0  0  0  0  0  0  0  0  0  0  0
   -2.9872    0.5670   -3.3869 H   0  0  0  0  0  0  0  0  0  0  0  0
    4.0424   -0.7472   -0.8725 H   0  0  0  0  0  0  0  0  0  0  0  0
    3.7649    0.7555   -1.7759 H   0  0  0  0  0  0  0  0  0  0  0  0
    3.3344    0.1919    3.8216 H   0  0  0  0  0  0  0  0  0  0  0  0
  1  2  1  0
  2  3  1  0
  3  4  1  0
  4  5  2  0
  5  6  1  0
  6  7  2  0
  7  8  1  0
  8  9  2  0
  9 10  1  0
 10 11  1  0
 11 12  2  0
 12 13  1  0
 13 14  2  0
 13 15  1  0
 11 16  1  0
  5 17  1  0
 17 18  2  0
 17 19  1  0
  4 20  1  0
 19  2  1  0
 14  9  1  0
  1 21  1  0
  1 22  1  0
  1 23  1  0
  2 24  1  0
  3 25  1  0
  3 26  1  0
  6 27  1  0
 10 28  1  0
 12 29  1  0
 15 30  1  0
 15 31  1  0
 15 32  1  0
 16 33  1  0
 16 34  1  0
 16 35  1  0
 19 36  1  0
 19 37  1  0
 20 38  1  0
M  END
>  <Unnamed: 0>  (245) 
1604

>  <ID>  (245) 
TRAIN_1604

>  <Canonical_Smiles>  (245) 
CC1CC(=C(\C=N\N=C\2/NC(=CC(=N2)C)C)C(=O)C1)O

>  <Inhibition>  (245) 
22.851484

>  <TDC_conf_true_inhibitor>  (245) 
0

>  <TDC_conf_non_inhibitor>  (245) 
1

>  <split>  (245) 
1

$$$$
245
     RDKit          3D

 66 68  0  0  0  0  0  0  0  0999 V2000
  -10.4137    0.6757    0.9560 C   0  0  0  0  0  0  0  0  0  0  0  0
   -9.7908    0.2218    2.2663 C   0  0  0  0  0  0  0  0  0  0  0  0
   -8.3126   -0.0360    2.1222 C   0  0  0  0  0  0  0  0  0  0  0  0
   -7.8382   -1.3229    1.8442 C   0  0  0  0  0  0  0  0  0  0  0  0
   -6.4683   -1.5559    1.6893 C   0  0  0  0  0  0  0  0  0  0  0  0
   -5.5426   -0.5077    1.8101 C   0  0  0  0  0  0  0  0  0  0  0  0
   -6.0244    0.7819    2.0809 C   0  0  0  0  0  0  0  0  0  0  0  0
   -7.3938    1.0149    2.2332 C   0  0  0  0  0  0  0  0  0  0  0  0
   -4.0520   -0.7290    1.6296 C   0  0  0  0  0  0  0  0  0  0  0  0
   -3.5165   -1.8503    2.5258 C   0  0  0  0  0  0  0  0  0  0  0  0
   -2.0149   -1.9743    2.3999 C   0  0  0  0  0  0  0  0  0  0  0  0
   -1.3627   -2.5221    3.2849 O   0  0  0  0  0  0  0  0  0  0  0  0
   -1.3774   -1.4351    1.1556 C   0  0  0  0  0  0  0  0  0  0  0  0
   -0.0801   -1.0950    1.2598 C   0  0  0  0  0  0  0  0  0  0  0  0
    0.8291   -0.4750    0.4360 N   0  0  0  0  0  0  0  0  0  0  0  0
    0.6405    0.1948   -0.8424 C   0  0  0  0  0  0  0  0  0  0  0  0
    1.8106    1.1904   -1.0792 C   0  0  0  0  0  0  0  0  0  0  0  0
    3.1468    0.6138   -0.8078 N   0  0  0  0  0  0  0  0  0  0  0  0
    3.5595   -0.3780   -1.8267 C   0  0  0  0  0  0  0  0  0  0  0  0
    4.5157    0.1696   -2.9051 C   0  0  0  0  0  0  0  0  0  0  0  0
    5.7440    0.7496   -2.3311 N   0  0  0  0  0  0  0  0  0  0  0  0
    5.5957    1.2227   -0.9407 C   0  0  0  0  0  0  0  0  0  0  0  0
    4.1544    1.6900   -0.6518 C   0  0  0  0  0  0  0  0  0  0  0  0
    6.8168    1.1095   -3.1246 C   0  0  0  0  0  0  0  0  0  0  0  0
    6.7992    1.2219   -4.7967 S   0  0  0  0  0  0  0  0  0  0  0  0
    7.9977    1.4152   -2.5012 N   0  0  0  0  0  0  0  0  0  0  0  0
    8.6385    0.4744   -1.6022 C   0  0  0  0  0  0  0  0  0  0  0  0
    9.8039    1.1699   -0.9772 C   0  0  0  0  0  0  0  0  0  0  0  0
   11.0791    0.7744   -1.1103 C   0  0  0  0  0  0  0  0  0  0  0  0
   -2.2305   -1.2317   -0.0515 C   0  0  0  0  0  0  0  0  0  0  0  0
   -1.7900   -1.3034   -1.1999 O   0  0  0  0  0  0  0  0  0  0  0  0
   -3.7152   -1.0184    0.1652 C   0  0  0  0  0  0  0  0  0  0  0  0
  -11.4723    0.9158    1.1027 H   0  0  0  0  0  0  0  0  0  0  0  0
  -10.3506   -0.1163    0.1998 H   0  0  0  0  0  0  0  0  0  0  0  0
   -9.9143    1.5648    0.5513 H   0  0  0  0  0  0  0  0  0  0  0  0
   -9.9572    0.9763    3.0456 H   0  0  0  0  0  0  0  0  0  0  0  0
  -10.2952   -0.6893    2.6109 H   0  0  0  0  0  0  0  0  0  0  0  0
   -8.5329   -2.1563    1.7399 H   0  0  0  0  0  0  0  0  0  0  0  0
   -6.1430   -2.5702    1.4642 H   0  0  0  0  0  0  0  0  0  0  0  0
   -5.3378    1.6231    2.1677 H   0  0  0  0  0  0  0  0  0  0  0  0
   -7.7412    2.0262    2.4330 H   0  0  0  0  0  0  0  0  0  0  0  0
   -3.5338    0.1989    1.9176 H   0  0  0  0  0  0  0  0  0  0  0  0
   -3.9526   -2.8271    2.2810 H   0  0  0  0  0  0  0  0  0  0  0  0
   -3.7490   -1.6231    3.5759 H   0  0  0  0  0  0  0  0  0  0  0  0
    0.4238   -1.3198    2.2042 H   0  0  0  0  0  0  0  0  0  0  0  0
    1.7975   -0.4351    0.7645 H   0  0  0  0  0  0  0  0  0  0  0  0
    0.6045   -0.5443   -1.6518 H   0  0  0  0  0  0  0  0  0  0  0  0
   -0.2949    0.7646   -0.8477 H   0  0  0  0  0  0  0  0  0  0  0  0
    1.7521    1.6040   -2.0954 H   0  0  0  0  0  0  0  0  0  0  0  0
    1.6515    2.0272   -0.3818 H   0  0  0  0  0  0  0  0  0  0  0  0
    4.0748   -1.1843   -1.2893 H   0  0  0  0  0  0  0  0  0  0  0  0
    2.7003   -0.8496   -2.3132 H   0  0  0  0  0  0  0  0  0  0  0  0
    4.7946   -0.6363   -3.5943 H   0  0  0  0  0  0  0  0  0  0  0  0
    4.0098    0.9556   -3.4819 H   0  0  0  0  0  0  0  0  0  0  0  0
    6.2954    2.0399   -0.7325 H   0  0  0  0  0  0  0  0  0  0  0  0
    5.8427    0.3782   -0.2829 H   0  0  0  0  0  0  0  0  0  0  0  0
    4.0962    2.0680    0.3769 H   0  0  0  0  0  0  0  0  0  0  0  0
    3.9287    2.5288   -1.3259 H   0  0  0  0  0  0  0  0  0  0  0  0
    8.6580    1.7671   -3.1881 H   0  0  0  0  0  0  0  0  0  0  0  0
    8.9392   -0.3990   -2.1922 H   0  0  0  0  0  0  0  0  0  0  0  0
    7.9517    0.1232   -0.8320 H   0  0  0  0  0  0  0  0  0  0  0  0
    9.5786    2.0369   -0.3609 H   0  0  0  0  0  0  0  0  0  0  0  0
   11.8782    1.3153   -0.6174 H   0  0  0  0  0  0  0  0  0  0  0  0
   11.3508   -0.0922   -1.7066 H   0  0  0  0  0  0  0  0  0  0  0  0
   -4.2311   -1.9198   -0.1880 H   0  0  0  0  0  0  0  0  0  0  0  0
   -4.0308   -0.1777   -0.4641 H   0  0  0  0  0  0  0  0  0  0  0  0
  1  2  1  0
  2  3  1  0
  3  4  2  0
  4  5  1  0
  5  6  2  0
  6  7  1  0
  7  8  2  0
  6  9  1  0
  9 10  1  0
 10 11  1  0
 11 12  2  0
 11 13  1  0
 13 14  2  3
 14 15  1  0
 15 16  1  0
 16 17  1  0
 17 18  1  0
 18 19  1  0
 19 20  1  0
 20 21  1  0
 21 22  1  0
 22 23  1  0
 21 24  1  0
 24 25  2  0
 24 26  1  0
 26 27  1  0
 27 28  1  0
 28 29  2  0
 13 30  1  0
 30 31  2  0
 30 32  1  0
  8  3  1  0
 32  9  1  0
 23 18  1  0
  1 33  1  0
  1 34  1  0
  1 35  1  0
  2 36  1  0
  2 37  1  0
  4 38  1  0
  5 39  1  0
  7 40  1  0
  8 41  1  0
  9 42  1  0
 10 43  1  0
 10 44  1  0
 14 45  1  0
 15 46  1  0
 16 47  1  0
 16 48  1  0
 17 49  1  0
 17 50  1  0
 19 51  1  0
 19 52  1  0
 20 53  1  0
 20 54  1  0
 22 55  1  0
 22 56  1  0
 23 57  1  0
 23 58  1  0
 26 59  1  0
 27 60  1  0
 27 61  1  0
 28 62  1  0
 29 63  1  0
 29 64  1  0
 32 65  1  0
 32 66  1  0
M  END
>  <Unnamed: 0>  (246) 
1605

>  <ID>  (246) 
TRAIN_1605

>  <Canonical_Smiles>  (246) 
CCc1ccc(cc1)C2CC(=O)C(=CNCCN3CCN(CC3)C(=S)NCC=C)C(=O)C2

>  <Inhibition>  (246) 
60.154961

>  <TDC_conf_true_inhibitor>  (246) 
1

>  <TDC_conf_non_inhibitor>  (246) 
0

>  <split>  (246) 
1

$$$$
246
     RDKit          3D

 46 48  0  0  0  0  0  0  0  0999 V2000
    6.6145    2.5041    0.3932 C   0  0  0  0  0  0  0  0  0  0  0  0
    5.5089    1.4997    0.2569 C   0  0  0  0  0  0  0  0  0  0  0  0
    4.5008    1.4179    1.2228 C   0  0  0  0  0  0  0  0  0  0  0  0
    3.4879    0.4593    1.1139 C   0  0  0  0  0  0  0  0  0  0  0  0
    3.4766   -0.4484    0.0478 C   0  0  0  0  0  0  0  0  0  0  0  0
    2.4163   -1.4489   -0.1273 C   0  0  0  0  0  0  0  0  0  0  0  0
    1.8023   -2.0760    0.8874 C   0  0  0  0  0  0  0  0  0  0  0  0
    0.5570   -3.2399    0.5608 S   0  0  0  0  0  6  0  0  0  0  0  0
    0.3537   -4.0111    1.7701 O   0  0  0  0  0  0  0  0  0  0  0  0
    0.8347   -3.9035   -0.6970 O   0  0  0  0  0  0  0  0  0  0  0  0
   -0.8482   -2.3412    0.3325 N   0  0  0  0  0  0  0  0  0  0  0  0
   -1.4822   -1.4018    1.2926 C   0  0  0  0  0  0  0  0  0  0  0  0
   -2.2239   -0.7174    0.1119 C   0  0  0  0  0  0  0  0  0  0  0  0
   -2.1539    0.7981    0.0718 C   0  0  0  0  0  0  0  0  0  0  0  0
   -3.3469    1.3220    0.6496 O   0  0  0  0  0  0  0  0  0  0  0  0
   -4.5028    1.0025   -0.1396 C   0  0  0  0  0  0  0  0  0  0  0  0
   -4.7170    2.0895   -1.1946 C   0  0  0  0  0  0  0  0  0  0  0  0
   -5.7107    0.9665    0.7980 C   0  0  0  0  0  0  0  0  0  0  0  0
   -4.3800   -0.2496   -0.8291 O   0  0  0  0  0  0  0  0  0  0  0  0
   -3.6528   -1.2134   -0.0662 C   0  0  0  0  0  0  0  0  0  0  0  0
   -1.1664   -1.4156   -0.7842 C   0  0  0  0  0  0  0  0  0  0  0  0
    4.4871   -0.3631   -0.9174 C   0  0  0  0  0  0  0  0  0  0  0  0
    5.5001    0.5945   -0.8087 C   0  0  0  0  0  0  0  0  0  0  0  0
    6.2594    3.4100    0.8957 H   0  0  0  0  0  0  0  0  0  0  0  0
    7.4383    2.0772    0.9734 H   0  0  0  0  0  0  0  0  0  0  0  0
    6.9921    2.8052   -0.5896 H   0  0  0  0  0  0  0  0  0  0  0  0
    4.4942    2.1040    2.0671 H   0  0  0  0  0  0  0  0  0  0  0  0
    2.7103    0.4419    1.8728 H   0  0  0  0  0  0  0  0  0  0  0  0
    2.1602   -1.6897   -1.1584 H   0  0  0  0  0  0  0  0  0  0  0  0
    2.0435   -1.9151    1.9276 H   0  0  0  0  0  0  0  0  0  0  0  0
   -2.1042   -1.9096    2.0348 H   0  0  0  0  0  0  0  0  0  0  0  0
   -0.7457   -0.7785    1.8112 H   0  0  0  0  0  0  0  0  0  0  0  0
   -2.0422    1.1725   -0.9524 H   0  0  0  0  0  0  0  0  0  0  0  0
   -1.3024    1.1812    0.6439 H   0  0  0  0  0  0  0  0  0  0  0  0
   -4.7728    3.0829   -0.7371 H   0  0  0  0  0  0  0  0  0  0  0  0
   -3.8903    2.1099   -1.9129 H   0  0  0  0  0  0  0  0  0  0  0  0
   -5.6300    1.9068   -1.7717 H   0  0  0  0  0  0  0  0  0  0  0  0
   -5.8703    1.9395    1.2754 H   0  0  0  0  0  0  0  0  0  0  0  0
   -6.6207    0.6742    0.2635 H   0  0  0  0  0  0  0  0  0  0  0  0
   -5.5622    0.2430    1.6067 H   0  0  0  0  0  0  0  0  0  0  0  0
   -4.1537   -1.3699    0.8956 H   0  0  0  0  0  0  0  0  0  0  0  0
   -3.6905   -2.1670   -0.6032 H   0  0  0  0  0  0  0  0  0  0  0  0
   -1.5428   -1.9292   -1.6729 H   0  0  0  0  0  0  0  0  0  0  0  0
   -0.3139   -0.7897   -1.0675 H   0  0  0  0  0  0  0  0  0  0  0  0
    4.5061   -1.0511   -1.7604 H   0  0  0  0  0  0  0  0  0  0  0  0
    6.2824    0.6273   -1.5640 H   0  0  0  0  0  0  0  0  0  0  0  0
  1  2  1  0
  2  3  2  0
  3  4  1  0
  4  5  2  0
  5  6  1  0
  6  7  2  0
  7  8  1  0
  8  9  2  0
  8 10  2  0
  8 11  1  0
 11 12  1  0
 12 13  1  0
 13 14  1  0
 14 15  1  0
 15 16  1  0
 16 17  1  0
 16 18  1  0
 16 19  1  0
 19 20  1  0
 13 21  1  0
  5 22  1  0
 22 23  2  0
 23  2  1  0
 21 11  1  0
 20 13  1  0
  1 24  1  0
  1 25  1  0
  1 26  1  0
  3 27  1  0
  4 28  1  0
  6 29  1  0
  7 30  1  0
 12 31  1  0
 12 32  1  0
 14 33  1  0
 14 34  1  0
 17 35  1  0
 17 36  1  0
 17 37  1  0
 18 38  1  0
 18 39  1  0
 18 40  1  0
 20 41  1  0
 20 42  1  0
 21 43  1  0
 21 44  1  0
 22 45  1  0
 23 46  1  0
M  END
>  <Unnamed: 0>  (247) 
1610

>  <ID>  (247) 
TRAIN_1610

>  <Canonical_Smiles>  (247) 
Cc1ccc(\C=C\S(=O)(=O)N2CC3(COC(C)(C)OC3)C2)cc1

>  <Inhibition>  (247) 
29.57629

>  <TDC_conf_true_inhibitor>  (247) 
0

>  <TDC_conf_non_inhibitor>  (247) 
1

>  <split>  (247) 
1

$$$$
247
     RDKit          3D

 45 48  0  0  0  0  0  0  0  0999 V2000
    1.2944   -1.7989   -2.1839 O   0  0  0  0  0  0  0  0  0  0  0  0
    0.3964   -1.0437   -1.8237 C   0  0  0  0  0  0  0  0  0  0  0  0
   -1.0705   -1.3891   -2.1032 C   0  0  0  0  0  0  0  0  0  0  0  0
   -1.8621   -1.3876   -0.8847 N   0  0  0  0  0  0  0  0  0  0  0  0
   -2.0949   -2.5026   -0.1355 C   0  0  0  0  0  0  0  0  0  0  0  0
   -1.7754   -3.6482   -0.4058 O   0  0  0  0  0  0  0  0  0  0  0  0
   -2.7762   -2.0879    1.1383 C   0  0  0  0  0  0  0  0  0  0  0  0
   -3.2627   -0.6687    0.8464 C   0  0  0  0  0  0  0  0  0  0  0  0
   -3.1572    0.2775    2.0442 C   0  0  0  0  0  0  0  0  0  0  0  0
   -4.3010    1.2617    1.8458 C   0  0  0  0  0  0  0  0  0  0  0  0
   -5.4220    0.3815    1.3228 C   0  0  0  0  0  0  0  0  0  0  0  0
   -4.7331   -0.6045    0.3809 C   0  0  0  0  0  0  0  0  0  0  0  0
   -2.3559   -0.2616   -0.2982 C   0  0  0  0  0  0  0  0  0  0  0  0
   -2.1070    0.8823   -0.6531 O   0  0  0  0  0  0  0  0  0  0  0  0
    0.5620    0.2012   -1.2365 N   0  0  0  0  0  0  0  0  0  0  0  0
    1.7611    0.8131   -0.8184 C   0  0  0  0  0  0  0  0  0  0  0  0
    1.6549    2.1072   -0.2924 C   0  0  0  0  0  0  0  0  0  0  0  0
    2.7858    2.7892    0.1560 C   0  0  0  0  0  0  0  0  0  0  0  0
    4.0365    2.1787    0.0859 C   0  0  0  0  0  0  0  0  0  0  0  0
    4.1678    0.8827   -0.4320 C   0  0  0  0  0  0  0  0  0  0  0  0
    3.0188    0.2076   -0.8832 C   0  0  0  0  0  0  0  0  0  0  0  0
    5.4846    0.2527   -0.4919 C   0  0  0  0  0  0  0  0  0  0  0  0
    6.6270    0.8862   -0.0412 N   0  0  0  0  0  0  0  0  0  0  0  0
    7.5747    0.0068   -0.2567 C   0  0  0  0  0  0  0  0  0  0  0  0
    7.0366   -1.1069   -0.8117 N   0  0  0  0  0  0  0  0  0  0  0  0
    5.7136   -0.9809   -0.9720 N   0  0  0  0  0  0  0  0  0  0  0  0
   -1.4748   -0.6485   -2.8022 H   0  0  0  0  0  0  0  0  0  0  0  0
   -1.1159   -2.3803   -2.5667 H   0  0  0  0  0  0  0  0  0  0  0  0
   -3.5887   -2.7780    1.3809 H   0  0  0  0  0  0  0  0  0  0  0  0
   -2.0294   -2.1094    1.9402 H   0  0  0  0  0  0  0  0  0  0  0  0
   -2.1938    0.7944    2.1077 H   0  0  0  0  0  0  0  0  0  0  0  0
   -3.3095   -0.2695    2.9831 H   0  0  0  0  0  0  0  0  0  0  0  0
   -4.5732    1.7726    2.7739 H   0  0  0  0  0  0  0  0  0  0  0  0
   -4.0323    2.0207    1.1025 H   0  0  0  0  0  0  0  0  0  0  0  0
   -5.8872   -0.1639    2.1527 H   0  0  0  0  0  0  0  0  0  0  0  0
   -6.2035    0.9579    0.8200 H   0  0  0  0  0  0  0  0  0  0  0  0
   -5.2406   -1.5744    0.4172 H   0  0  0  0  0  0  0  0  0  0  0  0
   -4.8133   -0.2391   -0.6504 H   0  0  0  0  0  0  0  0  0  0  0  0
   -0.2821    0.7614   -1.1134 H   0  0  0  0  0  0  0  0  0  0  0  0
    0.6883    2.6022   -0.2248 H   0  0  0  0  0  0  0  0  0  0  0  0
    2.6939    3.7938    0.5602 H   0  0  0  0  0  0  0  0  0  0  0  0
    4.9137    2.7177    0.4392 H   0  0  0  0  0  0  0  0  0  0  0  0
    3.1346   -0.7978   -1.2782 H   0  0  0  0  0  0  0  0  0  0  0  0
    8.6266    0.1184   -0.0388 H   0  0  0  0  0  0  0  0  0  0  0  0
    7.4907   -1.9660   -1.0992 H   0  0  0  0  0  0  0  0  0  0  0  0
  1  2  2  0
  2  3  1  0
  3  4  1  0
  4  5  1  0
  5  6  2  0
  5  7  1  0
  7  8  1  0
  8  9  1  0
  9 10  1  0
 10 11  1  0
 11 12  1  0
  8 13  1  0
 13 14  2  0
  2 15  1  0
 15 16  1  0
 16 17  2  0
 17 18  1  0
 18 19  2  0
 19 20  1  0
 20 21  2  0
 20 22  1  0
 22 23  1  0
 23 24  2  0
 24 25  1  0
 25 26  1  0
 13  4  1  0
 12  8  1  0
 21 16  1  0
 26 22  2  0
  3 27  1  0
  3 28  1  0
  7 29  1  0
  7 30  1  0
  9 31  1  0
  9 32  1  0
 10 33  1  0
 10 34  1  0
 11 35  1  0
 11 36  1  0
 12 37  1  0
 12 38  1  0
 15 39  1  0
 17 40  1  0
 18 41  1  0
 19 42  1  0
 21 43  1  0
 24 44  1  0
 25 45  1  0
M  END
>  <Unnamed: 0>  (248) 
1613

>  <ID>  (248) 
TRAIN_1613

>  <Canonical_Smiles>  (248) 
O=C(CN1C(=O)CC2(CCCC2)C1=O)Nc3cccc(c3)c4nc[nH]n4

>  <Inhibition>  (248) 
10.56234

>  <TDC_conf_true_inhibitor>  (248) 
0

>  <TDC_conf_non_inhibitor>  (248) 
1

>  <split>  (248) 
1

$$$$
248
     RDKit          3D

 36 39  0  0  0  0  0  0  0  0999 V2000
   -1.6856   -0.6508   -0.8730 C   0  0  0  0  0  0  0  0  0  0  0  0
   -2.7561   -0.0990   -1.8268 C   0  0  0  0  0  0  0  0  0  0  0  0
   -3.9497    0.4966   -1.1161 C   0  0  0  0  0  0  0  0  0  0  0  0
   -4.1160    1.8872   -1.0531 C   0  0  0  0  0  0  0  0  0  0  0  0
   -5.2095    2.4394   -0.3840 C   0  0  0  0  0  0  0  0  0  0  0  0
   -6.1469    1.6087    0.2261 C   0  0  0  0  0  0  0  0  0  0  0  0
   -5.9912    0.2244    0.1704 C   0  0  0  0  0  0  0  0  0  0  0  0
   -4.8983   -0.3303   -0.4979 C   0  0  0  0  0  0  0  0  0  0  0  0
   -1.0518    0.4254   -0.1203 N   0  0  0  0  0  0  0  0  0  0  0  0
   -0.0343    0.1751    0.7462 C   0  0  0  0  0  0  0  0  0  0  0  0
    0.1655    0.9018    1.8272 N   0  0  0  0  0  0  0  0  0  0  0  0
    1.2546    0.4853    2.5672 N   0  0  0  0  0  0  0  0  0  0  0  0
    1.8732   -0.5239    1.9985 C   0  0  0  0  0  0  0  0  0  0  0  0
    3.2580   -1.2762    2.7514 S   0  0  0  0  0  0  0  0  0  0  0  0
    4.4796   -0.9716    1.5322 C   0  0  0  0  0  0  0  0  0  0  0  0
    5.6301   -1.9214    1.6350 C   0  0  0  0  0  0  0  0  0  0  0  0
    6.6270   -1.7801    0.7489 C   0  0  0  0  0  0  0  0  0  0  0  0
    6.5333   -0.7557   -0.2136 C   0  0  0  0  0  0  0  0  0  0  0  0
    7.3015   -0.3608   -1.2036 N   0  0  0  0  0  0  0  0  0  0  0  0
    6.6386    0.6966   -1.7862 N   0  0  0  0  0  0  0  0  0  0  0  0
    5.4890    0.9478   -1.1680 N   0  0  0  0  0  0  0  0  0  0  0  0
    5.4111    0.0485   -0.1786 N   0  0  0  0  0  0  0  0  0  0  0  0
    4.3575   -0.0145    0.6704 N   0  0  0  0  0  0  0  0  0  0  0  0
    1.1296   -1.0883    0.5639 S   0  0  0  0  0  0  0  0  0  0  0  0
   -2.1277   -1.3792   -0.1822 H   0  0  0  0  0  0  0  0  0  0  0  0
   -0.9397   -1.1735   -1.4836 H   0  0  0  0  0  0  0  0  0  0  0  0
   -3.1117   -0.9083   -2.4776 H   0  0  0  0  0  0  0  0  0  0  0  0
   -2.3078    0.6503   -2.4917 H   0  0  0  0  0  0  0  0  0  0  0  0
   -3.3934    2.5512   -1.5234 H   0  0  0  0  0  0  0  0  0  0  0  0
   -5.3303    3.5190   -0.3401 H   0  0  0  0  0  0  0  0  0  0  0  0
   -6.9985    2.0404    0.7462 H   0  0  0  0  0  0  0  0  0  0  0  0
   -6.7225   -0.4230    0.6473 H   0  0  0  0  0  0  0  0  0  0  0  0
   -4.7944   -1.4125   -0.5323 H   0  0  0  0  0  0  0  0  0  0  0  0
   -1.7196    1.0942    0.2611 H   0  0  0  0  0  0  0  0  0  0  0  0
    5.6412   -2.6918    2.3976 H   0  0  0  0  0  0  0  0  0  0  0  0
    7.4954   -2.4308    0.7492 H   0  0  0  0  0  0  0  0  0  0  0  0
  1  2  1  0
  2  3  1  0
  3  4  2  0
  4  5  1  0
  5  6  2  0
  6  7  1  0
  7  8  2  0
  1  9  1  0
  9 10  1  0
 10 11  2  0
 11 12  1  0
 12 13  2  0
 13 14  1  0
 14 15  1  0
 15 16  1  0
 16 17  2  0
 17 18  1  0
 18 19  2  0
 19 20  1  0
 20 21  2  0
 21 22  1  0
 22 23  1  0
 13 24  1  0
  8  3  1  0
 24 10  1  0
 23 15  2  0
 22 18  1  0
  1 25  1  0
  1 26  1  0
  2 27  1  0
  2 28  1  0
  4 29  1  0
  5 30  1  0
  6 31  1  0
  7 32  1  0
  8 33  1  0
  9 34  1  0
 16 35  1  0
 17 36  1  0
M  END
>  <Unnamed: 0>  (249) 
1617

>  <ID>  (249) 
TRAIN_1617

>  <Canonical_Smiles>  (249) 
C(Cc1ccccc1)Nc2nnc(Sc3ccc4nnnn4n3)s2

>  <Inhibition>  (249) 
32.175182

>  <TDC_conf_true_inhibitor>  (249) 
1

>  <TDC_conf_non_inhibitor>  (249) 
0

>  <split>  (249) 
1

$$$$
249
     RDKit          3D

 39 40  0  0  0  0  0  0  0  0999 V2000
    5.9954   -1.0755    1.1703 C   0  0  0  0  0  0  0  0  0  0  0  0
    4.7837   -0.5441    0.5092 N   0  0  0  0  0  0  0  0  0  0  0  0
    5.0956    0.0150   -0.8241 C   0  0  0  0  0  0  0  0  0  0  0  0
    3.4833   -1.6335    0.5291 S   0  0  0  0  0  6  0  0  0  0  0  0
    3.6570   -2.5663   -0.5591 O   0  0  0  0  0  0  0  0  0  0  0  0
    3.2799   -2.0822    1.8867 O   0  0  0  0  0  0  0  0  0  0  0  0
    2.2276   -0.5889    0.1409 N   0  0  0  0  0  0  0  0  0  0  0  0
    1.7429    0.5102    1.0284 C   0  0  0  0  0  0  0  0  0  0  0  0
    0.3254    0.3709    0.4214 C   0  0  0  0  0  0  0  0  0  0  0  0
    0.8108   -1.0316   -0.0217 C   0  0  0  0  0  0  0  0  0  0  0  0
   -0.7676    0.4433    1.3697 O   0  0  0  0  0  0  0  0  0  0  0  0
   -1.9752    0.2670    0.7305 C   0  0  0  0  0  0  0  0  0  0  0  0
   -2.5727   -0.9233    0.6341 C   0  0  0  0  0  0  0  0  0  0  0  0
   -3.8891   -1.0299   -0.0398 C   0  0  0  0  0  0  0  0  0  0  0  0
   -4.4016   -2.1415   -0.1478 O   0  0  0  0  0  0  0  0  0  0  0  0
   -4.4500    0.1620   -0.5122 N   0  0  0  0  0  0  0  0  0  0  0  0
   -5.7483    0.0778   -1.1699 C   0  0  0  0  0  0  0  0  0  0  0  0
   -3.8190    1.4006   -0.3492 C   0  0  0  0  0  0  0  0  0  0  0  0
   -2.6206    1.4617    0.2567 C   0  0  0  0  0  0  0  0  0  0  0  0
   -4.4921    2.6516   -0.8449 C   0  0  0  0  0  0  0  0  0  0  0  0
    6.3703   -1.9626    0.6507 H   0  0  0  0  0  0  0  0  0  0  0  0
    5.7866   -1.3214    2.2154 H   0  0  0  0  0  0  0  0  0  0  0  0
    6.7835   -0.3152    1.1725 H   0  0  0  0  0  0  0  0  0  0  0  0
    5.8295    0.8211   -0.7202 H   0  0  0  0  0  0  0  0  0  0  0  0
    4.2072    0.4535   -1.2865 H   0  0  0  0  0  0  0  0  0  0  0  0
    5.5128   -0.7493   -1.4868 H   0  0  0  0  0  0  0  0  0  0  0  0
    1.8111    0.2659    2.0937 H   0  0  0  0  0  0  0  0  0  0  0  0
    2.2441    1.4623    0.8364 H   0  0  0  0  0  0  0  0  0  0  0  0
    0.1895    1.0658   -0.4202 H   0  0  0  0  0  0  0  0  0  0  0  0
    0.5691   -1.3095   -1.0506 H   0  0  0  0  0  0  0  0  0  0  0  0
    0.5433   -1.8495    0.6558 H   0  0  0  0  0  0  0  0  0  0  0  0
   -2.1452   -1.8362    1.0243 H   0  0  0  0  0  0  0  0  0  0  0  0
   -6.4826    0.6494   -0.5941 H   0  0  0  0  0  0  0  0  0  0  0  0
   -5.6687    0.4805   -2.1842 H   0  0  0  0  0  0  0  0  0  0  0  0
   -6.1056   -0.9530   -1.2443 H   0  0  0  0  0  0  0  0  0  0  0  0
   -2.1130    2.4080    0.4151 H   0  0  0  0  0  0  0  0  0  0  0  0
   -4.6463    2.6072   -1.9277 H   0  0  0  0  0  0  0  0  0  0  0  0
   -5.4593    2.7942   -0.3524 H   0  0  0  0  0  0  0  0  0  0  0  0
   -3.8918    3.5452   -0.6409 H   0  0  0  0  0  0  0  0  0  0  0  0
  1  2  1  0
  2  3  1  0
  2  4  1  0
  4  5  2  0
  4  6  2  0
  4  7  1  0
  7  8  1  0
  8  9  1  0
  9 10  1  0
  9 11  1  0
 11 12  1  0
 12 13  2  0
 13 14  1  0
 14 15  2  0
 14 16  1  0
 16 17  1  0
 16 18  1  0
 18 19  2  0
 18 20  1  0
 10  7  1  0
 19 12  1  0
  1 21  1  0
  1 22  1  0
  1 23  1  0
  3 24  1  0
  3 25  1  0
  3 26  1  0
  8 27  1  0
  8 28  1  0
  9 29  1  0
 10 30  1  0
 10 31  1  0
 13 32  1  0
 17 33  1  0
 17 34  1  0
 17 35  1  0
 19 36  1  0
 20 37  1  0
 20 38  1  0
 20 39  1  0
M  END
>  <Unnamed: 0>  (250) 
1619

>  <ID>  (250) 
TRAIN_1619

>  <Canonical_Smiles>  (250) 
CN(C)S(=O)(=O)N1CC(C1)OC2=CC(=O)N(C)C(=C2)C

>  <Inhibition>  (250) 
0.5

>  <TDC_conf_true_inhibitor>  (250) 
0

>  <TDC_conf_non_inhibitor>  (250) 
1

>  <split>  (250) 
1

$$$$
250
     RDKit          3D

 51 54  0  0  0  0  0  0  0  0999 V2000
    2.2134   -3.0533   -1.0708 C   0  0  0  0  0  0  0  0  0  0  0  0
    1.7281   -2.1488   -0.0781 O   0  0  0  0  0  0  0  0  0  0  0  0
    2.7133   -1.3087    0.3784 C   0  0  0  0  0  0  0  0  0  0  0  0
    3.8652   -1.8102    0.9872 C   0  0  0  0  0  0  0  0  0  0  0  0
    4.8300   -0.9320    1.4853 C   0  0  0  0  0  0  0  0  0  0  0  0
    4.6517    0.4528    1.3836 C   0  0  0  0  0  0  0  0  0  0  0  0
    5.6758    1.3940    1.9462 C   0  0  0  0  0  0  0  0  0  0  0  0
    3.4763    0.9497    0.8034 C   0  0  0  0  0  0  0  0  0  0  0  0
    2.5021    0.0763    0.2972 C   0  0  0  0  0  0  0  0  0  0  0  0
    1.2786    0.6219   -0.3081 C   0  0  0  0  0  0  0  0  0  0  0  0
    0.2640    1.0288    0.4870 C   0  0  0  0  0  0  0  0  0  0  0  0
   -1.0991    1.4864   -0.0573 C   0  0  0  0  0  0  0  0  0  0  0  0
   -1.4790    2.7540    0.7357 C   0  0  0  0  0  0  0  0  0  0  0  0
   -0.9493    1.8683   -1.4740 N   0  0  0  0  0  0  0  0  0  0  0  0
   -0.0152    1.2707   -2.2604 C   0  0  0  0  0  0  0  0  0  0  0  0
    0.0618    1.1824   -3.5663 N   0  0  0  0  0  0  0  0  0  0  0  0
    1.2476    0.5446   -3.8302 N   0  0  0  0  0  0  0  0  0  0  0  0
    1.9001    0.2508   -2.7132 N   0  0  0  0  0  0  0  0  0  0  0  0
    1.1109    0.6746   -1.6938 N   0  0  0  0  0  0  0  0  0  0  0  0
   -2.2066    0.4130    0.0685 C   0  0  0  0  0  0  0  0  0  0  0  0
   -1.9603   -0.8125    0.7312 C   0  0  0  0  0  0  0  0  0  0  0  0
   -2.9506   -1.7940    0.8759 C   0  0  0  0  0  0  0  0  0  0  0  0
   -2.6331   -3.0961    1.5508 C   0  0  0  0  0  0  0  0  0  0  0  0
   -4.2110   -1.5673    0.3295 C   0  0  0  0  0  0  0  0  0  0  0  0
   -4.4847   -0.3733   -0.3379 C   0  0  0  0  0  0  0  0  0  0  0  0
   -3.4996    0.6135   -0.4770 C   0  0  0  0  0  0  0  0  0  0  0  0
   -3.7042    1.7956   -1.1459 O   0  0  0  0  0  0  0  0  0  0  0  0
   -4.9698    2.0029   -1.7623 C   0  0  0  0  0  0  0  0  0  0  0  0
    2.8762   -2.5577   -1.7893 H   0  0  0  0  0  0  0  0  0  0  0  0
    1.3495   -3.4397   -1.6199 H   0  0  0  0  0  0  0  0  0  0  0  0
    2.7210   -3.9021   -0.6020 H   0  0  0  0  0  0  0  0  0  0  0  0
    4.0132   -2.8801    1.0966 H   0  0  0  0  0  0  0  0  0  0  0  0
    5.7218   -1.3370    1.9591 H   0  0  0  0  0  0  0  0  0  0  0  0
    6.6778    0.9546    1.9000 H   0  0  0  0  0  0  0  0  0  0  0  0
    5.4385    1.6248    2.9892 H   0  0  0  0  0  0  0  0  0  0  0  0
    5.7041    2.3271    1.3737 H   0  0  0  0  0  0  0  0  0  0  0  0
    3.3225    2.0256    0.7395 H   0  0  0  0  0  0  0  0  0  0  0  0
    0.3666    0.9814    1.5692 H   0  0  0  0  0  0  0  0  0  0  0  0
   -1.6654    2.5234    1.7918 H   0  0  0  0  0  0  0  0  0  0  0  0
   -2.3778    3.2434    0.3466 H   0  0  0  0  0  0  0  0  0  0  0  0
   -0.6780    3.5032    0.6932 H   0  0  0  0  0  0  0  0  0  0  0  0
   -1.8408    2.0854   -1.9174 H   0  0  0  0  0  0  0  0  0  0  0  0
   -0.9778   -1.0339    1.1445 H   0  0  0  0  0  0  0  0  0  0  0  0
   -2.2094   -3.7988    0.8268 H   0  0  0  0  0  0  0  0  0  0  0  0
   -3.5329   -3.5402    1.9893 H   0  0  0  0  0  0  0  0  0  0  0  0
   -1.9153   -2.9480    2.3645 H   0  0  0  0  0  0  0  0  0  0  0  0
   -4.9902   -2.3218    0.4114 H   0  0  0  0  0  0  0  0  0  0  0  0
   -5.4819   -0.2500   -0.7474 H   0  0  0  0  0  0  0  0  0  0  0  0
   -4.9407    2.9760   -2.2618 H   0  0  0  0  0  0  0  0  0  0  0  0
   -5.1669    1.2435   -2.5260 H   0  0  0  0  0  0  0  0  0  0  0  0
   -5.7703    2.0366   -1.0162 H   0  0  0  0  0  0  0  0  0  0  0  0
  1  2  1  0
  2  3  1  0
  3  4  2  0
  4  5  1  0
  5  6  2  0
  6  7  1  0
  6  8  1  0
  8  9  2  0
  9 10  1  0
 10 11  2  0
 11 12  1  0
 12 13  1  0
 12 14  1  0
 14 15  1  0
 15 16  2  0
 16 17  1  0
 17 18  2  0
 18 19  1  0
 12 20  1  0
 20 21  2  0
 21 22  1  0
 22 23  1  0
 22 24  2  0
 24 25  1  0
 25 26  2  0
 26 27  1  0
 27 28  1  0
  9  3  1  0
 19 10  1  0
 19 15  1  0
 26 20  1  0
  1 29  1  0
  1 30  1  0
  1 31  1  0
  4 32  1  0
  5 33  1  0
  7 34  1  0
  7 35  1  0
  7 36  1  0
  8 37  1  0
 11 38  1  0
 13 39  1  0
 13 40  1  0
 13 41  1  0
 14 42  1  0
 21 43  1  0
 23 44  1  0
 23 45  1  0
 23 46  1  0
 24 47  1  0
 25 48  1  0
 28 49  1  0
 28 50  1  0
 28 51  1  0
M  END
>  <Unnamed: 0>  (251) 
1621

>  <ID>  (251) 
TRAIN_1621

>  <Canonical_Smiles>  (251) 
COc1ccc(C)cc1C2=CC(C)(Nc3nnnn23)c4cc(C)ccc4OC

>  <Inhibition>  (251) 
89.689558

>  <TDC_conf_true_inhibitor>  (251) 
1

>  <TDC_conf_non_inhibitor>  (251) 
0

>  <split>  (251) 
1

$$$$
251
     RDKit          3D

 36 39  0  0  0  0  0  0  0  0999 V2000
    7.5577   -1.1083   -1.2153 F   0  0  0  0  0  0  0  0  0  0  0  0
    6.4591   -0.5630   -0.6778 C   0  0  0  0  0  0  0  0  0  0  0  0
    5.5065    0.0169   -1.5064 C   0  0  0  0  0  0  0  0  0  0  0  0
    4.3609    0.5835   -0.9469 C   0  0  0  0  0  0  0  0  0  0  0  0
    4.1688    0.5690    0.4450 C   0  0  0  0  0  0  0  0  0  0  0  0
    2.9121    1.1615    1.0458 C   0  0  0  0  0  0  0  0  0  0  0  0
    1.6945    0.3320    0.8275 C   0  0  0  0  0  0  0  0  0  0  0  0
    0.4616    0.7517    0.6404 N   0  0  0  0  0  0  0  0  0  0  0  0
   -0.2598   -0.3939    0.5049 C   0  0  0  0  0  0  0  0  0  0  0  0
   -1.6049   -0.4465    0.2893 N   0  0  0  0  0  0  0  0  0  0  0  0
   -2.4171    0.6444    0.1294 C   0  0  0  0  0  0  0  0  0  0  0  0
   -2.0958    1.8258    0.1097 O   0  0  0  0  0  0  0  0  0  0  0  0
   -3.8530    0.2631   -0.0802 C   0  0  0  0  0  0  0  0  0  0  0  0
   -4.5161   -0.7513    0.7426 C   0  0  0  0  0  0  0  0  0  0  0  0
   -5.8107   -1.0336    0.5117 C   0  0  0  0  0  0  0  0  0  0  0  0
   -6.4960   -0.3556   -0.4945 N   0  0  0  0  0  0  0  0  0  0  0  0
   -7.7779   -0.4801   -0.9020 N   0  0  0  0  0  0  0  0  0  0  0  0
   -7.9365    0.3884   -1.8919 N   0  0  0  0  0  0  0  0  0  0  0  0
   -6.7790    1.0819   -2.1407 N   0  0  0  0  0  0  0  0  0  0  0  0
   -5.8947    0.6276   -1.2819 C   0  0  0  0  0  0  0  0  0  0  0  0
   -4.5288    0.9370   -1.0374 C   0  0  0  0  0  0  0  0  0  0  0  0
    0.4544   -1.5170    0.6127 N   0  0  0  0  0  0  0  0  0  0  0  0
    1.6926   -1.0336    0.8080 N   0  0  0  0  0  0  0  0  0  0  0  0
    5.1432   -0.0224    1.2653 C   0  0  0  0  0  0  0  0  0  0  0  0
    6.2881   -0.5874    0.7014 C   0  0  0  0  0  0  0  0  0  0  0  0
    5.6627    0.0266   -2.5807 H   0  0  0  0  0  0  0  0  0  0  0  0
    3.6177    1.0385   -1.6009 H   0  0  0  0  0  0  0  0  0  0  0  0
    2.7575    2.1603    0.6184 H   0  0  0  0  0  0  0  0  0  0  0  0
    3.0477    1.3130    2.1239 H   0  0  0  0  0  0  0  0  0  0  0  0
   -1.9536   -1.3872    0.2064 H   0  0  0  0  0  0  0  0  0  0  0  0
   -3.9687   -1.2378    1.5439 H   0  0  0  0  0  0  0  0  0  0  0  0
   -6.3808   -1.7610    1.0749 H   0  0  0  0  0  0  0  0  0  0  0  0
   -4.0599    1.7121   -1.6370 H   0  0  0  0  0  0  0  0  0  0  0  0
    2.4742   -1.6731    0.9057 H   0  0  0  0  0  0  0  0  0  0  0  0
    5.0234   -0.0398    2.3470 H   0  0  0  0  0  0  0  0  0  0  0  0
    7.0505   -1.0416    1.3269 H   0  0  0  0  0  0  0  0  0  0  0  0
  1  2  1  0
  2  3  2  0
  3  4  1  0
  4  5  2  0
  5  6  1  0
  6  7  1  0
  7  8  2  0
  8  9  1  0
  9 10  1  0
 10 11  1  0
 11 12  2  0
 11 13  1  0
 13 14  1  0
 14 15  2  0
 15 16  1  0
 16 17  1  0
 17 18  2  0
 18 19  1  0
 19 20  2  0
 20 21  1  0
  9 22  2  0
 22 23  1  0
  5 24  1  0
 24 25  2  0
 25  2  1  0
 23  7  1  0
 21 13  2  0
 20 16  1  0
  3 26  1  0
  4 27  1  0
  6 28  1  0
  6 29  1  0
 10 30  1  0
 14 31  1  0
 15 32  1  0
 21 33  1  0
 23 34  1  0
 24 35  1  0
 25 36  1  0
M  END
>  <Unnamed: 0>  (252) 
1625

>  <ID>  (252) 
TRAIN_1625

>  <Canonical_Smiles>  (252) 
Fc1ccc(Cc2nc(NC(=O)c3ccn4nnnc4c3)n[nH]2)cc1

>  <Inhibition>  (252) 
5.856192

>  <TDC_conf_true_inhibitor>  (252) 
0

>  <TDC_conf_non_inhibitor>  (252) 
1

>  <split>  (252) 
1

$$$$
252
     RDKit          3D

 49 53  0  0  0  0  0  0  0  0999 V2000
    6.8499    0.7903   -0.3598 C   0  0  0  0  0  0  0  0  0  0  0  0
    5.4094    1.0885   -0.0618 C   0  0  0  0  0  0  0  0  0  0  0  0
    4.9518    1.1149    1.2629 C   0  0  0  0  0  0  0  0  0  0  0  0
    3.6208    1.4253    1.5448 C   0  0  0  0  0  0  0  0  0  0  0  0
    2.7446    1.7148    0.4958 C   0  0  0  0  0  0  0  0  0  0  0  0
    3.1913    1.7177   -0.8271 C   0  0  0  0  0  0  0  0  0  0  0  0
    4.5240    1.4057   -1.1016 C   0  0  0  0  0  0  0  0  0  0  0  0
    1.0569    2.1126    0.8633 S   0  0  0  0  0  6  0  0  0  0  0  0
    1.0399    2.8841    2.0858 O   0  0  0  0  0  0  0  0  0  0  0  0
    0.4075    2.5761   -0.3425 O   0  0  0  0  0  0  0  0  0  0  0  0
    0.4351    0.6069    1.2430 N   0  0  0  0  0  0  0  0  0  0  0  0
   -0.0932   -0.2086    0.1418 C   0  0  0  0  0  0  0  0  0  0  0  0
   -1.6091    0.0645   -0.2341 C   0  0  0  0  0  0  0  0  0  0  0  0
   -2.5340    1.0233    1.0394 S   0  0  0  0  0  0  0  0  0  0  0  0
   -3.7273    1.7939    0.0722 C   0  0  0  0  0  0  0  0  0  0  0  0
   -3.9953    1.6250   -1.1981 N   0  0  0  0  0  0  0  0  0  0  0  0
   -5.0377    2.4773   -1.3959 C   0  0  0  0  0  0  0  0  0  0  0  0
   -5.5683    2.5633   -2.6125 N   0  0  0  0  0  0  0  0  0  0  0  0
   -5.4168    3.1821   -0.3331 N   0  0  0  0  0  0  0  0  0  0  0  0
   -4.5669    2.7219    0.6006 N   0  0  0  0  0  0  0  0  0  0  0  0
   -2.1655   -1.3412   -0.3386 C   0  0  0  0  0  0  0  0  0  0  0  0
   -3.4081   -1.7740   -0.7813 C   0  0  0  0  0  0  0  0  0  0  0  0
   -3.7136   -3.1432   -0.7205 C   0  0  0  0  0  0  0  0  0  0  0  0
   -2.7836   -4.0741   -0.2200 C   0  0  0  0  0  0  0  0  0  0  0  0
   -1.5190   -3.6415    0.2166 C   0  0  0  0  0  0  0  0  0  0  0  0
   -0.4781   -4.4358    0.7319 C   0  0  0  0  0  0  0  0  0  0  0  0
    0.7432   -3.8442    1.1089 C   0  0  0  0  0  0  0  0  0  0  0  0
    0.9501   -2.4630    0.9725 C   0  0  0  0  0  0  0  0  0  0  0  0
   -0.0807   -1.6795    0.4739 C   0  0  0  0  0  0  0  0  0  0  0  0
   -1.2664   -2.2712    0.1228 C   0  0  0  0  0  0  0  0  0  0  0  0
    6.9532    0.3001   -1.3336 H   0  0  0  0  0  0  0  0  0  0  0  0
    7.2724    0.1138    0.3905 H   0  0  0  0  0  0  0  0  0  0  0  0
    7.4300    1.7182   -0.3665 H   0  0  0  0  0  0  0  0  0  0  0  0
    5.6328    0.8971    2.0833 H   0  0  0  0  0  0  0  0  0  0  0  0
    3.2755    1.4442    2.5761 H   0  0  0  0  0  0  0  0  0  0  0  0
    2.5178    1.9639   -1.6447 H   0  0  0  0  0  0  0  0  0  0  0  0
    4.8709    1.4149   -2.1332 H   0  0  0  0  0  0  0  0  0  0  0  0
   -0.0945    0.5962    2.1144 H   0  0  0  0  0  0  0  0  0  0  0  0
    0.5280   -0.0932   -0.7565 H   0  0  0  0  0  0  0  0  0  0  0  0
   -1.6369    0.5709   -1.2053 H   0  0  0  0  0  0  0  0  0  0  0  0
   -4.9762    2.2606   -3.3745 H   0  0  0  0  0  0  0  0  0  0  0  0
   -6.0818    3.4130   -2.8072 H   0  0  0  0  0  0  0  0  0  0  0  0
   -4.6095    3.0742    1.5487 H   0  0  0  0  0  0  0  0  0  0  0  0
   -4.1442   -1.0693   -1.1600 H   0  0  0  0  0  0  0  0  0  0  0  0
   -4.6881   -3.4885   -1.0595 H   0  0  0  0  0  0  0  0  0  0  0  0
   -3.0485   -5.1272   -0.1789 H   0  0  0  0  0  0  0  0  0  0  0  0
   -0.6090   -5.5096    0.8367 H   0  0  0  0  0  0  0  0  0  0  0  0
    1.5422   -4.4706    1.4999 H   0  0  0  0  0  0  0  0  0  0  0  0
    1.9049   -2.0204    1.2424 H   0  0  0  0  0  0  0  0  0  0  0  0
  1  2  1  0
  2  3  2  0
  3  4  1  0
  4  5  2  0
  5  6  1  0
  6  7  2  0
  5  8  1  0
  8  9  2  0
  8 10  2  0
  8 11  1  0
 11 12  1  0
 12 13  1  0
 13 14  1  0
 14 15  1  0
 15 16  2  0
 16 17  1  0
 17 18  1  0
 17 19  2  0
 19 20  1  0
 13 21  1  0
 21 22  2  0
 22 23  1  0
 23 24  2  0
 24 25  1  0
 25 26  2  0
 26 27  1  0
 27 28  2  0
 28 29  1  0
 29 30  2  0
  7  2  1  0
 29 12  1  0
 20 15  1  0
 30 21  1  0
 30 25  1  0
  1 31  1  0
  1 32  1  0
  1 33  1  0
  3 34  1  0
  4 35  1  0
  6 36  1  0
  7 37  1  0
 11 38  1  0
 12 39  1  0
 13 40  1  0
 18 41  1  0
 18 42  1  0
 20 43  1  0
 22 44  1  0
 23 45  1  0
 24 46  1  0
 26 47  1  0
 27 48  1  0
 28 49  1  0
M  END
>  <Unnamed: 0>  (253) 
1626

>  <ID>  (253) 
TRAIN_1626

>  <Canonical_Smiles>  (253) 
Cc1ccc(cc1)S(=O)(=O)NC2C(Sc3nc(N)n[nH]3)c4cccc5cccc2c45

>  <Inhibition>  (253) 
90.136025

>  <TDC_conf_true_inhibitor>  (253) 
1

>  <TDC_conf_non_inhibitor>  (253) 
0

>  <split>  (253) 
1

$$$$
253
     RDKit          3D

 55 57  0  0  0  0  0  0  0  0999 V2000
   -4.2678   -0.8341    3.8761 C   0  0  0  0  0  0  0  0  0  0  0  0
   -3.0042   -1.1669    3.0976 C   0  0  0  0  0  0  0  0  0  0  0  0
   -3.3205   -1.9893    1.8458 C   0  0  0  0  0  0  0  0  0  0  0  0
   -2.0654   -2.4212    1.0797 C   0  0  0  0  0  0  0  0  0  0  0  0
   -1.3147   -1.2757    0.4449 C   0  0  0  0  0  0  0  0  0  0  0  0
   -0.0813   -0.8640    0.9591 C   0  0  0  0  0  0  0  0  0  0  0  0
    0.6237    0.1806    0.3558 C   0  0  0  0  0  0  0  0  0  0  0  0
    0.1135    0.8385   -0.7736 C   0  0  0  0  0  0  0  0  0  0  0  0
   -1.1317    0.4355   -1.2704 C   0  0  0  0  0  0  0  0  0  0  0  0
   -1.8360   -0.6135   -0.6726 C   0  0  0  0  0  0  0  0  0  0  0  0
    0.8150    1.8988   -1.3887 N   0  0  0  0  0  0  0  0  0  0  0  0
    0.1957    3.2243   -1.1873 C   0  0  0  0  0  0  0  0  0  0  0  0
    0.0261    3.5892    0.2862 C   0  0  0  0  0  0  0  0  0  0  0  0
   -0.0260    5.3586    0.2844 S   0  0  0  0  0  6  0  0  0  0  0  0
   -1.3954    5.7585    0.0329 O   0  0  0  0  0  0  0  0  0  0  0  0
    0.7287    5.8529    1.4146 O   0  0  0  0  0  0  0  0  0  0  0  0
    0.9034    5.6232   -1.2087 C   0  0  0  0  0  0  0  0  0  0  0  0
    1.1642    4.2505   -1.7990 C   0  0  0  0  0  0  0  0  0  0  0  0
    2.8137    3.5644   -1.4216 S   0  0  0  0  0  0  0  0  0  0  0  0
    2.1902    1.9028   -1.5754 C   0  0  0  0  0  0  0  0  0  0  0  0
    3.0700    1.0130   -1.8647 N   0  0  0  0  0  0  0  0  0  0  0  0
    2.6076   -0.2181   -2.2486 C   0  0  0  0  0  0  0  0  0  0  0  0
    1.8582   -0.3959   -3.2042 O   0  0  0  0  0  0  0  0  0  0  0  0
    3.1939   -1.3671   -1.4494 C   0  0  0  0  0  0  0  0  0  0  0  0
    2.3109   -2.6108   -1.5214 C   0  0  0  0  0  0  0  0  0  0  0  0
    2.7379   -3.6614   -0.5060 C   0  0  0  0  0  0  0  0  0  0  0  0
    1.7481   -4.7892   -0.4640 C   0  0  0  0  0  0  0  0  0  0  0  0
    0.8640   -4.9395    0.3626 O   0  0  0  0  0  0  0  0  0  0  0  0
    1.9096   -5.6624   -1.4743 O   0  0  0  0  0  0  0  0  0  0  0  0
   -4.9635   -0.2513    3.2636 H   0  0  0  0  0  0  0  0  0  0  0  0
   -4.7782   -1.7453    4.2042 H   0  0  0  0  0  0  0  0  0  0  0  0
   -4.0212   -0.2444    4.7648 H   0  0  0  0  0  0  0  0  0  0  0  0
   -2.3191   -1.7247    3.7466 H   0  0  0  0  0  0  0  0  0  0  0  0
   -2.5043   -0.2317    2.8227 H   0  0  0  0  0  0  0  0  0  0  0  0
   -3.9904   -1.4196    1.1903 H   0  0  0  0  0  0  0  0  0  0  0  0
   -3.8660   -2.8935    2.1438 H   0  0  0  0  0  0  0  0  0  0  0  0
   -2.3526   -3.1223    0.2854 H   0  0  0  0  0  0  0  0  0  0  0  0
   -1.4012   -2.9854    1.7466 H   0  0  0  0  0  0  0  0  0  0  0  0
    0.3422   -1.3603    1.8301 H   0  0  0  0  0  0  0  0  0  0  0  0
    1.5763    0.4799    0.7874 H   0  0  0  0  0  0  0  0  0  0  0  0
   -1.5479    0.9088   -2.1566 H   0  0  0  0  0  0  0  0  0  0  0  0
   -2.7894   -0.9224   -1.0963 H   0  0  0  0  0  0  0  0  0  0  0  0
   -0.7696    3.2927   -1.7063 H   0  0  0  0  0  0  0  0  0  0  0  0
    0.8689    3.2759    0.9097 H   0  0  0  0  0  0  0  0  0  0  0  0
   -0.9020    3.2009    0.7133 H   0  0  0  0  0  0  0  0  0  0  0  0
    1.8094    6.1922   -0.9857 H   0  0  0  0  0  0  0  0  0  0  0  0
    0.2669    6.2131   -1.8759 H   0  0  0  0  0  0  0  0  0  0  0  0
    1.0803    4.2747   -2.8913 H   0  0  0  0  0  0  0  0  0  0  0  0
    4.1942   -1.5832   -1.8402 H   0  0  0  0  0  0  0  0  0  0  0  0
    3.3009   -1.0444   -0.4076 H   0  0  0  0  0  0  0  0  0  0  0  0
    2.3498   -3.0332   -2.5336 H   0  0  0  0  0  0  0  0  0  0  0  0
    1.2615   -2.3412   -1.3531 H   0  0  0  0  0  0  0  0  0  0  0  0
    3.7324   -4.0609   -0.7336 H   0  0  0  0  0  0  0  0  0  0  0  0
    2.7927   -3.2330    0.5018 H   0  0  0  0  0  0  0  0  0  0  0  0
    1.1983   -6.3230   -1.3398 H   0  0  0  0  0  0  0  0  0  0  0  0
  1  2  1  0
  2  3  1  0
  3  4  1  0
  4  5  1  0
  5  6  2  0
  6  7  1  0
  7  8  2  0
  8  9  1  0
  9 10  2  0
  8 11  1  0
 11 12  1  0
 12 13  1  0
 13 14  1  0
 14 15  2  0
 14 16  2  0
 14 17  1  0
 17 18  1  0
 18 19  1  0
 19 20  1  0
 20 21  2  0
 21 22  1  0
 22 23  2  0
 22 24  1  0
 24 25  1  0
 25 26  1  0
 26 27  1  0
 27 28  2  0
 27 29  1  0
 10  5  1  0
 20 11  1  0
 18 12  1  0
  1 30  1  0
  1 31  1  0
  1 32  1  0
  2 33  1  0
  2 34  1  0
  3 35  1  0
  3 36  1  0
  4 37  1  0
  4 38  1  0
  6 39  1  0
  7 40  1  0
  9 41  1  0
 10 42  1  0
 12 43  1  0
 13 44  1  0
 13 45  1  0
 17 46  1  0
 17 47  1  0
 18 48  1  0
 24 49  1  0
 24 50  1  0
 25 51  1  0
 25 52  1  0
 26 53  1  0
 26 54  1  0
 29 55  1  0
M  END
>  <Unnamed: 0>  (254) 
1628

>  <ID>  (254) 
TRAIN_1628

>  <Canonical_Smiles>  (254) 
CCCCc1ccc(cc1)N2C3CS(=O)(=O)CC3S/C/2=N/C(=O)CCCC(=O)O

>  <Inhibition>  (254) 
7.840106

>  <TDC_conf_true_inhibitor>  (254) 
0

>  <TDC_conf_non_inhibitor>  (254) 
1

>  <split>  (254) 
1

$$$$
254
     RDKit          3D

 21 23  0  0  0  0  0  0  0  0999 V2000
   -5.0446    0.4742   -0.1119 Br  0  0  0  0  0  0  0  0  0  0  0  0
   -3.1890    0.1292    0.0260 C   0  0  0  0  0  0  0  0  0  0  0  0
   -2.7528   -1.0263    0.6675 C   0  0  0  0  0  0  0  0  0  0  0  0
   -1.3874   -1.3071    0.7842 C   0  0  0  0  0  0  0  0  0  0  0  0
   -0.4769   -0.3884    0.2351 C   0  0  0  0  0  0  0  0  0  0  0  0
   -0.9009    0.7785   -0.4134 C   0  0  0  0  0  0  0  0  0  0  0  0
   -2.2811    1.0410   -0.5192 C   0  0  0  0  0  0  0  0  0  0  0  0
    0.2622    1.4742   -0.8440 C   0  0  0  0  0  0  0  0  0  0  0  0
    1.3548    0.7314   -0.4568 C   0  0  0  0  0  0  0  0  0  0  0  0
    2.7646    0.9408   -0.6194 C   0  0  0  0  0  0  0  0  0  0  0  0
    3.2645    1.9081   -1.1834 O   0  0  0  0  0  0  0  0  0  0  0  0
    3.5421   -0.0677   -0.0718 N   0  0  0  0  0  0  0  0  0  0  0  0
    3.0781   -1.1938    0.5811 N   0  0  0  0  0  0  0  0  0  0  0  0
    1.7893   -1.3347    0.7011 C   0  0  0  0  0  0  0  0  0  0  0  0
    0.9058   -0.3879    0.1918 N   0  0  0  0  0  0  0  0  0  0  0  0
   -3.4736   -1.7255    1.0863 H   0  0  0  0  0  0  0  0  0  0  0  0
   -1.0585   -2.2117    1.2868 H   0  0  0  0  0  0  0  0  0  0  0  0
   -2.6269    1.9413   -1.0189 H   0  0  0  0  0  0  0  0  0  0  0  0
    0.3004    2.4156   -1.3789 H   0  0  0  0  0  0  0  0  0  0  0  0
    4.5491    0.0271   -0.1569 H   0  0  0  0  0  0  0  0  0  0  0  0
    1.3807   -2.2184    1.2148 H   0  0  0  0  0  0  0  0  0  0  0  0
  1  2  1  0
  2  3  2  0
  3  4  1  0
  4  5  2  0
  5  6  1  0
  6  7  2  0
  6  8  1  0
  8  9  2  0
  9 10  1  0
 10 11  2  0
 10 12  1  0
 12 13  1  0
 13 14  2  0
 14 15  1  0
  7  2  1  0
 15  5  1  0
 15  9  1  0
  3 16  1  0
  4 17  1  0
  7 18  1  0
  8 19  1  0
 12 20  1  0
 14 21  1  0
M  END
>  <Unnamed: 0>  (255) 
1631

>  <ID>  (255) 
TRAIN_1631

>  <Canonical_Smiles>  (255) 
Brc1ccc2c(c1)cc3C(=O)NN=Cn23

>  <Inhibition>  (255) 
0.5

>  <TDC_conf_true_inhibitor>  (255) 
0

>  <TDC_conf_non_inhibitor>  (255) 
1

>  <split>  (255) 
1

$$$$
255
     RDKit          3D

 61 65  0  0  0  0  0  0  0  0999 V2000
    5.0802    3.4454   -0.6445 C   0  0  0  0  0  0  0  0  0  0  0  0
    6.0710    2.3072   -0.4545 C   0  0  0  0  0  0  0  0  0  0  0  0
    5.7877    0.9778   -1.6619 S   0  0  0  0  0  0  0  0  0  0  0  0
    4.3177    0.2930   -1.0429 C   0  0  0  0  0  0  0  0  0  0  0  0
    4.0526    0.2232    0.2153 N   0  0  0  0  0  0  0  0  0  0  0  0
    2.8529   -0.3383    0.5779 C   0  0  0  0  0  0  0  0  0  0  0  0
    1.9497   -0.7864   -0.3209 C   0  0  0  0  0  0  0  0  0  0  0  0
    0.6038   -1.3687    0.0812 C   0  0  0  0  0  0  0  0  0  0  0  0
    0.5379   -1.6517    1.5759 C   0  0  0  0  0  0  0  0  0  0  0  0
    1.4892   -1.2054    2.4249 C   0  0  0  0  0  0  0  0  0  0  0  0
    1.5183   -1.4823    3.9050 C   0  0  0  0  0  0  0  0  0  0  0  0
    2.5488   -0.4701    1.9202 N   0  0  0  0  0  0  0  0  0  0  0  0
   -0.6145   -2.4611    2.0136 C   0  0  0  0  0  0  0  0  0  0  0  0
   -0.8660   -3.5704    1.5709 O   0  0  0  0  0  0  0  0  0  0  0  0
   -1.3531   -1.7550    2.9034 O   0  0  0  0  0  0  0  0  0  0  0  0
   -2.5441   -2.4131    3.3358 C   0  0  0  0  0  0  0  0  0  0  0  0
   -0.5230   -0.4316   -0.3053 C   0  0  0  0  0  0  0  0  0  0  0  0
   -0.6008    0.9278   -0.0574 C   0  0  0  0  0  0  0  0  0  0  0  0
   -1.8101    1.3723   -0.5330 N   0  0  0  0  0  0  0  0  0  0  0  0
   -2.5413    0.3511   -1.0321 N   0  0  0  0  0  0  0  0  0  0  0  0
   -1.7643   -0.7363   -0.9378 C   0  0  0  0  0  0  0  0  0  0  0  0
   -2.2552   -2.0257   -1.4124 C   0  0  0  0  0  0  0  0  0  0  0  0
   -3.4556   -2.5443   -0.9099 C   0  0  0  0  0  0  0  0  0  0  0  0
   -3.9316   -3.7801   -1.3528 C   0  0  0  0  0  0  0  0  0  0  0  0
   -3.2158   -4.5008   -2.3070 C   0  0  0  0  0  0  0  0  0  0  0  0
   -2.0282   -3.9841   -2.8256 C   0  0  0  0  0  0  0  0  0  0  0  0
   -1.5510   -2.7485   -2.3814 C   0  0  0  0  0  0  0  0  0  0  0  0
   -2.3130    2.7050   -0.5402 C   0  0  0  0  0  0  0  0  0  0  0  0
   -3.5806    2.9598   -1.0874 C   0  0  0  0  0  0  0  0  0  0  0  0
   -4.0838    4.2619   -1.1217 C   0  0  0  0  0  0  0  0  0  0  0  0
   -3.3261    5.3167   -0.6192 C   0  0  0  0  0  0  0  0  0  0  0  0
   -2.0676    5.0727   -0.0730 C   0  0  0  0  0  0  0  0  0  0  0  0
   -1.5587    3.7713   -0.0294 C   0  0  0  0  0  0  0  0  0  0  0  0
    2.3075   -0.7363   -1.7498 C   0  0  0  0  0  0  0  0  0  0  0  0
    1.5920   -1.1971   -2.6308 O   0  0  0  0  0  0  0  0  0  0  0  0
    3.5045   -0.1569   -2.0271 N   0  0  0  0  0  0  0  0  0  0  0  0
    4.0479    3.1255   -0.4667 H   0  0  0  0  0  0  0  0  0  0  0  0
    5.2990    4.2550    0.0616 H   0  0  0  0  0  0  0  0  0  0  0  0
    5.1432    3.8655   -1.6543 H   0  0  0  0  0  0  0  0  0  0  0  0
    6.0284    1.9178    0.5676 H   0  0  0  0  0  0  0  0  0  0  0  0
    7.0866    2.6858   -0.6116 H   0  0  0  0  0  0  0  0  0  0  0  0
    0.4968   -2.3278   -0.4399 H   0  0  0  0  0  0  0  0  0  0  0  0
    2.5306   -1.7616    4.2190 H   0  0  0  0  0  0  0  0  0  0  0  0
    0.8621   -2.3066    4.2011 H   0  0  0  0  0  0  0  0  0  0  0  0
    1.2224   -0.5863    4.4607 H   0  0  0  0  0  0  0  0  0  0  0  0
    3.3234   -0.2509    2.5399 H   0  0  0  0  0  0  0  0  0  0  0  0
   -2.8674   -1.9457    4.2724 H   0  0  0  0  0  0  0  0  0  0  0  0
   -3.3303   -2.2770    2.5861 H   0  0  0  0  0  0  0  0  0  0  0  0
   -2.3758   -3.4776    3.5321 H   0  0  0  0  0  0  0  0  0  0  0  0
    0.1049    1.5868    0.4232 H   0  0  0  0  0  0  0  0  0  0  0  0
   -4.0238   -1.9842   -0.1712 H   0  0  0  0  0  0  0  0  0  0  0  0
   -4.8618   -4.1762   -0.9548 H   0  0  0  0  0  0  0  0  0  0  0  0
   -3.5871   -5.4624   -2.6518 H   0  0  0  0  0  0  0  0  0  0  0  0
   -1.4757   -4.5386   -3.5805 H   0  0  0  0  0  0  0  0  0  0  0  0
   -0.6362   -2.3492   -2.8113 H   0  0  0  0  0  0  0  0  0  0  0  0
   -4.1836    2.1522   -1.5011 H   0  0  0  0  0  0  0  0  0  0  0  0
   -5.0580    4.4544   -1.5672 H   0  0  0  0  0  0  0  0  0  0  0  0
   -3.7173    6.3303   -0.6570 H   0  0  0  0  0  0  0  0  0  0  0  0
   -1.4790    5.8976    0.3206 H   0  0  0  0  0  0  0  0  0  0  0  0
   -0.5753    3.6271    0.4077 H   0  0  0  0  0  0  0  0  0  0  0  0
    3.7968   -0.0950   -2.9910 H   0  0  0  0  0  0  0  0  0  0  0  0
  1  2  1  0
  2  3  1  0
  3  4  1  0
  4  5  2  0
  5  6  1  0
  6  7  2  0
  7  8  1  0
  8  9  1  0
  9 10  2  0
 10 11  1  0
 10 12  1  0
  9 13  1  0
 13 14  2  0
 13 15  1  0
 15 16  1  0
  8 17  1  0
 17 18  2  0
 18 19  1  0
 19 20  1  0
 20 21  2  0
 21 22  1  0
 22 23  2  0
 23 24  1  0
 24 25  2  0
 25 26  1  0
 26 27  2  0
 19 28  1  0
 28 29  2  0
 29 30  1  0
 30 31  2  0
 31 32  1  0
 32 33  2  0
  7 34  1  0
 34 35  2  0
 34 36  1  0
 36  4  1  0
 12  6  1  0
 21 17  1  0
 27 22  1  0
 33 28  1  0
  1 37  1  0
  1 38  1  0
  1 39  1  0
  2 40  1  0
  2 41  1  0
  8 42  1  0
 11 43  1  0
 11 44  1  0
 11 45  1  0
 12 46  1  0
 16 47  1  0
 16 48  1  0
 16 49  1  0
 18 50  1  0
 23 51  1  0
 24 52  1  0
 25 53  1  0
 26 54  1  0
 27 55  1  0
 29 56  1  0
 30 57  1  0
 31 58  1  0
 32 59  1  0
 33 60  1  0
 36 61  1  0
M  END
>  <Unnamed: 0>  (256) 
1636

>  <ID>  (256) 
TRAIN_1636

>  <Canonical_Smiles>  (256) 
CCSC1=NC2=C(C(C(=C(C)N2)C(=O)OC)c3cn(nc3c4ccccc4)c5ccccc5)C(=O)N1

>  <Inhibition>  (256) 
48.876883

>  <TDC_conf_true_inhibitor>  (256) 
1

>  <TDC_conf_non_inhibitor>  (256) 
0

>  <split>  (256) 
1

$$$$
256
     RDKit          3D

 24 25  0  0  0  0  0  0  0  0999 V2000
   -4.1149   -0.3230   -0.5457 C   0  0  0  0  0  0  0  0  0  0  0  0
   -2.7881    0.1092   -0.2457 O   0  0  0  0  0  0  0  0  0  0  0  0
   -1.8121   -0.7729   -0.6079 C   0  0  0  0  0  0  0  0  0  0  0  0
   -2.0494   -1.8551   -1.1330 O   0  0  0  0  0  0  0  0  0  0  0  0
   -0.4765   -0.3052   -0.2881 C   0  0  0  0  0  0  0  0  0  0  0  0
    0.0311    1.0052   -0.0887 C   0  0  0  0  0  0  0  0  0  0  0  0
   -0.8579    2.5099   -0.2270 S   0  0  0  0  0  0  0  0  0  0  0  0
    0.3904    3.7329    0.2283 C   0  0  0  0  0  0  0  0  0  0  0  0
    1.3358    1.0222    0.1901 N   0  0  0  0  0  0  0  0  0  0  0  0
    1.6895   -0.2786    0.1644 N   0  0  0  0  0  0  0  0  0  0  0  0
    3.0060   -0.7063    0.4041 C   0  0  0  0  0  0  0  0  0  0  0  0
    4.3729    0.1872    0.7511 S   0  0  0  0  0  0  0  0  0  0  0  0
    3.0742   -2.0889    0.3172 N   0  0  0  0  0  0  0  0  0  0  0  0
    2.0019   -2.9041    0.0433 C   0  0  0  0  0  0  0  0  0  0  0  0
    0.8041   -2.4750   -0.1687 N   0  0  0  0  0  0  0  0  0  0  0  0
    0.6319   -1.1235   -0.1175 C   0  0  0  0  0  0  0  0  0  0  0  0
   -4.8068    0.4597   -0.2225 H   0  0  0  0  0  0  0  0  0  0  0  0
   -4.3521   -1.2412    0.0006 H   0  0  0  0  0  0  0  0  0  0  0  0
   -4.2372   -0.4685   -1.6236 H   0  0  0  0  0  0  0  0  0  0  0  0
   -0.0598    4.7290    0.1963 H   0  0  0  0  0  0  0  0  0  0  0  0
    1.2284    3.7154   -0.4742 H   0  0  0  0  0  0  0  0  0  0  0  0
    0.7567    3.5568    1.2436 H   0  0  0  0  0  0  0  0  0  0  0  0
    3.9829   -2.5077    0.4725 H   0  0  0  0  0  0  0  0  0  0  0  0
    2.2490   -3.9775    0.0199 H   0  0  0  0  0  0  0  0  0  0  0  0
  1  2  1  0
  2  3  1  0
  3  4  2  0
  3  5  1  0
  5  6  1  0
  6  7  1  0
  7  8  1  0
  6  9  2  0
  9 10  1  0
 10 11  1  0
 11 12  2  0
 11 13  1  0
 13 14  1  0
 14 15  2  0
 15 16  1  0
 16  5  2  0
 16 10  1  0
  1 17  1  0
  1 18  1  0
  1 19  1  0
  8 20  1  0
  8 21  1  0
  8 22  1  0
 13 23  1  0
 14 24  1  0
M  END
>  <Unnamed: 0>  (257) 
1637

>  <ID>  (257) 
TRAIN_1637

>  <Canonical_Smiles>  (257) 
COC(=O)c1c(SC)nn2C(=S)NC=Nc12

>  <Inhibition>  (257) 
9.358442

>  <TDC_conf_true_inhibitor>  (257) 
0

>  <TDC_conf_non_inhibitor>  (257) 
1

>  <split>  (257) 
1

$$$$
257
     RDKit          3D

 51 54  0  0  0  0  0  0  0  0999 V2000
   -0.5792   -1.8552   -0.8482 O   0  0  0  0  0  0  0  0  0  0  0  0
   -0.4137   -0.9691   -0.0109 C   0  0  0  0  0  0  0  0  0  0  0  0
    0.6246   -1.0937    1.0970 C   0  0  0  0  0  0  0  0  0  0  0  0
    1.8743   -0.3019    0.7490 C   0  0  0  0  0  0  0  0  0  0  0  0
    2.7587   -1.2670    0.1374 N   0  0  0  0  0  0  0  0  0  0  0  0
    4.0879   -0.9384   -0.3888 C   0  0  0  0  0  0  0  0  0  0  0  0
    5.1129   -0.7763    0.7430 C   0  0  0  0  0  0  0  0  0  0  0  0
    6.2951    0.0427    0.2549 C   0  0  0  0  0  0  0  0  0  0  0  0
    5.9238    1.3682   -0.1259 O   0  0  0  0  0  0  0  0  0  0  0  0
    4.5999    1.5131   -0.6388 C   0  0  0  0  0  0  0  0  0  0  0  0
    4.0917    0.2647   -1.3420 C   0  0  0  0  0  0  0  0  0  0  0  0
    2.4261   -2.5641    0.5162 C   0  0  0  0  0  0  0  0  0  0  0  0
    3.1007   -3.5650    0.3334 O   0  0  0  0  0  0  0  0  0  0  0  0
    1.1252   -2.5269    1.2766 C   0  0  0  0  0  0  0  0  0  0  0  0
   -1.1433    0.2009   -0.0534 N   0  0  0  0  0  0  0  0  0  0  0  0
   -1.1670    1.2743    0.9266 C   0  0  0  0  0  0  0  0  0  0  0  0
   -1.9941    2.3683    0.2658 C   0  0  0  0  0  0  0  0  0  0  0  0
   -3.0175    1.5796   -0.5553 C   0  0  0  0  0  0  0  0  0  0  0  0
   -2.1862    0.3915   -1.0592 C   0  0  0  0  0  0  0  0  0  0  0  0
   -4.0531    1.1626    0.3470 O   0  0  0  0  0  0  0  0  0  0  0  0
   -5.1789    0.6488   -0.2610 C   0  0  0  0  0  0  0  0  0  0  0  0
   -5.2269    0.5860   -1.6156 N   0  0  0  0  0  0  0  0  0  0  0  0
   -6.3588    0.0554   -2.1367 C   0  0  0  0  0  0  0  0  0  0  0  0
   -7.4053   -0.3903   -1.3458 C   0  0  0  0  0  0  0  0  0  0  0  0
   -7.3701   -0.3270    0.0048 N   0  0  0  0  0  0  0  0  0  0  0  0
   -6.2305    0.2005    0.5351 C   0  0  0  0  0  0  0  0  0  0  0  0
   -6.1683    0.2702    1.9648 C   0  0  0  0  0  0  0  0  0  0  0  0
   -6.1011    0.3368    3.1238 N   0  0  0  0  0  0  0  0  0  0  0  0
    0.1658   -0.7450    2.0286 H   0  0  0  0  0  0  0  0  0  0  0  0
    1.6914    0.5265    0.0603 H   0  0  0  0  0  0  0  0  0  0  0  0
    2.3527    0.0780    1.6577 H   0  0  0  0  0  0  0  0  0  0  0  0
    4.3942   -1.8099   -0.9839 H   0  0  0  0  0  0  0  0  0  0  0  0
    5.4431   -1.7596    1.0966 H   0  0  0  0  0  0  0  0  0  0  0  0
    4.6591   -0.2654    1.6007 H   0  0  0  0  0  0  0  0  0  0  0  0
    6.7775   -0.4396   -0.6031 H   0  0  0  0  0  0  0  0  0  0  0  0
    7.0496    0.1274    1.0434 H   0  0  0  0  0  0  0  0  0  0  0  0
    4.6095    2.3591   -1.3336 H   0  0  0  0  0  0  0  0  0  0  0  0
    3.9422    1.7906    0.1923 H   0  0  0  0  0  0  0  0  0  0  0  0
    3.1068    0.4365   -1.7890 H   0  0  0  0  0  0  0  0  0  0  0  0
    4.7785    0.0416   -2.1694 H   0  0  0  0  0  0  0  0  0  0  0  0
    0.4390   -3.2896    0.9005 H   0  0  0  0  0  0  0  0  0  0  0  0
    1.3494   -2.7256    2.3302 H   0  0  0  0  0  0  0  0  0  0  0  0
   -0.1581    1.6083    1.1791 H   0  0  0  0  0  0  0  0  0  0  0  0
   -1.6533    0.8947    1.8321 H   0  0  0  0  0  0  0  0  0  0  0  0
   -2.4468    3.0330    1.0073 H   0  0  0  0  0  0  0  0  0  0  0  0
   -1.3576    2.9599   -0.4032 H   0  0  0  0  0  0  0  0  0  0  0  0
   -3.4229    2.2050   -1.3592 H   0  0  0  0  0  0  0  0  0  0  0  0
   -2.7582   -0.5328   -1.1813 H   0  0  0  0  0  0  0  0  0  0  0  0
   -1.6813    0.6351   -2.0004 H   0  0  0  0  0  0  0  0  0  0  0  0
   -6.4028   -0.0039   -3.2191 H   0  0  0  0  0  0  0  0  0  0  0  0
   -8.3049   -0.8131   -1.7806 H   0  0  0  0  0  0  0  0  0  0  0  0
  1  2  2  0
  2  3  1  0
  3  4  1  0
  4  5  1  0
  5  6  1  0
  6  7  1  0
  7  8  1  0
  8  9  1  0
  9 10  1  0
 10 11  1  0
  5 12  1  0
 12 13  2  0
 12 14  1  0
  2 15  1  0
 15 16  1  0
 16 17  1  0
 17 18  1  0
 18 19  1  0
 18 20  1  0
 20 21  1  0
 21 22  2  0
 22 23  1  0
 23 24  2  0
 24 25  1  0
 25 26  2  0
 26 27  1  0
 27 28  3  0
 14  3  1  0
 11  6  1  0
 19 15  1  0
 26 21  1  0
  3 29  1  0
  4 30  1  0
  4 31  1  0
  6 32  1  0
  7 33  1  0
  7 34  1  0
  8 35  1  0
  8 36  1  0
 10 37  1  0
 10 38  1  0
 11 39  1  0
 11 40  1  0
 14 41  1  0
 14 42  1  0
 16 43  1  0
 16 44  1  0
 17 45  1  0
 17 46  1  0
 18 47  1  0
 19 48  1  0
 19 49  1  0
 23 50  1  0
 24 51  1  0
M  END
>  <Unnamed: 0>  (258) 
1638

>  <ID>  (258) 
TRAIN_1638

>  <Canonical_Smiles>  (258) 
O=C(C1CN(C2CCOCC2)C(=O)C1)N3CCC(C3)Oc4nccnc4C#N

>  <Inhibition>  (258) 
9.269843

>  <TDC_conf_true_inhibitor>  (258) 
0

>  <TDC_conf_non_inhibitor>  (258) 
1

>  <split>  (258) 
1

$$$$
258
     RDKit          3D

 51 54  0  0  0  0  0  0  0  0999 V2000
   -6.2482    0.2311    1.8304 C   0  0  0  0  0  0  0  0  0  0  0  0
   -4.7953   -0.7955    1.7622 S   0  0  0  0  0  6  0  0  0  0  0  0
   -5.1808   -2.0570    1.1674 O   0  0  0  0  0  0  0  0  0  0  0  0
   -4.1626   -0.7426    3.0630 O   0  0  0  0  0  0  0  0  0  0  0  0
   -3.7903   -0.0164    0.6825 N   0  0  0  0  0  0  0  0  0  0  0  0
   -3.1288    1.2576    1.0017 C   0  0  0  0  0  0  0  0  0  0  0  0
   -3.9518    2.2897    0.2226 C   0  0  0  0  0  0  0  0  0  0  0  0
   -4.5728    1.5142   -0.9359 C   0  0  0  0  0  0  0  0  0  0  0  0
   -4.0980    0.0662   -0.7555 C   0  0  0  0  0  0  0  0  0  0  0  0
   -2.7788   -0.1762   -1.5065 C   0  0  0  0  0  0  0  0  0  0  0  0
   -1.5233    0.0979   -0.6523 C   0  0  0  0  0  0  0  0  0  0  0  0
   -1.6960    1.1665    0.4466 C   0  0  0  0  0  0  0  0  0  0  0  0
   -0.3695    0.4036   -1.4993 N   0  0  0  0  0  0  0  0  0  0  0  0
    0.3347   -0.5942   -2.1550 C   0  0  0  0  0  0  0  0  0  0  0  0
    0.0837   -1.7871   -2.0126 O   0  0  0  0  0  0  0  0  0  0  0  0
    1.4468   -0.0997   -3.0505 C   0  0  0  0  0  0  0  0  0  0  0  0
    2.7747   -0.3422   -2.5138 N   0  0  0  0  0  0  0  0  0  0  0  0
    3.1517   -0.4604   -1.2033 C   0  0  0  0  0  0  0  0  0  0  0  0
    4.5215   -0.6392   -1.1992 C   0  0  0  0  0  0  0  0  0  0  0  0
    4.8734   -0.5582   -2.5677 C   0  0  0  0  0  0  0  0  0  0  0  0
    3.8232   -0.3441   -3.3642 N   0  0  0  0  0  0  0  0  0  0  0  0
    5.3420   -0.8426   -0.0132 C   0  0  0  0  0  0  0  0  0  0  0  0
    4.7871   -1.3106    1.1888 C   0  0  0  0  0  0  0  0  0  0  0  0
    5.5890   -1.5092    2.3177 C   0  0  0  0  0  0  0  0  0  0  0  0
    6.9484   -1.2392    2.2478 C   0  0  0  0  0  0  0  0  0  0  0  0
    7.7176   -1.4262    3.3263 F   0  0  0  0  0  0  0  0  0  0  0  0
    7.5226   -0.7767    1.0711 C   0  0  0  0  0  0  0  0  0  0  0  0
    6.7217   -0.5785   -0.0585 C   0  0  0  0  0  0  0  0  0  0  0  0
   -6.9516   -0.2388    2.5236 H   0  0  0  0  0  0  0  0  0  0  0  0
   -6.6997    0.2859    0.8392 H   0  0  0  0  0  0  0  0  0  0  0  0
   -5.9772    1.2190    2.2066 H   0  0  0  0  0  0  0  0  0  0  0  0
   -3.1102    1.4947    2.0692 H   0  0  0  0  0  0  0  0  0  0  0  0
   -4.7485    2.6965    0.8566 H   0  0  0  0  0  0  0  0  0  0  0  0
   -3.3585    3.1427   -0.1243 H   0  0  0  0  0  0  0  0  0  0  0  0
   -4.2992    1.9387   -1.9071 H   0  0  0  0  0  0  0  0  0  0  0  0
   -5.6653    1.5679   -0.8644 H   0  0  0  0  0  0  0  0  0  0  0  0
   -4.8622   -0.6419   -1.0882 H   0  0  0  0  0  0  0  0  0  0  0  0
   -2.7453   -1.2280   -1.8159 H   0  0  0  0  0  0  0  0  0  0  0  0
   -2.7564    0.3973   -2.4400 H   0  0  0  0  0  0  0  0  0  0  0  0
   -1.2888   -0.8435   -0.1363 H   0  0  0  0  0  0  0  0  0  0  0  0
   -1.0187    0.9013    1.2699 H   0  0  0  0  0  0  0  0  0  0  0  0
   -1.3547    2.1513    0.1053 H   0  0  0  0  0  0  0  0  0  0  0  0
   -0.1900    1.3726   -1.7335 H   0  0  0  0  0  0  0  0  0  0  0  0
    1.3670   -0.6196   -4.0124 H   0  0  0  0  0  0  0  0  0  0  0  0
    1.3683    0.9773   -3.2334 H   0  0  0  0  0  0  0  0  0  0  0  0
    2.4265   -0.4379   -0.4014 H   0  0  0  0  0  0  0  0  0  0  0  0
    5.8530   -0.6467   -3.0183 H   0  0  0  0  0  0  0  0  0  0  0  0
    3.7279   -1.5445    1.2623 H   0  0  0  0  0  0  0  0  0  0  0  0
    5.1607   -1.8857    3.2446 H   0  0  0  0  0  0  0  0  0  0  0  0
    8.5898   -0.5766    1.0342 H   0  0  0  0  0  0  0  0  0  0  0  0
    7.1912   -0.2130   -0.9675 H   0  0  0  0  0  0  0  0  0  0  0  0
  1  2  1  0
  2  3  2  0
  2  4  2  0
  2  5  1  0
  5  6  1  0
  6  7  1  0
  7  8  1  0
  8  9  1  0
  9 10  1  0
 10 11  1  0
 11 12  1  0
 11 13  1  0
 13 14  1  0
 14 15  2  0
 14 16  1  0
 16 17  1  0
 17 18  1  0
 18 19  2  0
 19 20  1  0
 20 21  2  0
 19 22  1  0
 22 23  2  0
 23 24  1  0
 24 25  2  0
 25 26  1  0
 25 27  1  0
 27 28  2  0
  9  5  1  0
 12  6  1  0
 21 17  1  0
 28 22  1  0
  1 29  1  0
  1 30  1  0
  1 31  1  0
  6 32  1  0
  7 33  1  0
  7 34  1  0
  8 35  1  0
  8 36  1  0
  9 37  1  0
 10 38  1  0
 10 39  1  0
 11 40  1  0
 12 41  1  0
 12 42  1  0
 13 43  1  0
 16 44  1  0
 16 45  1  0
 18 46  1  0
 20 47  1  0
 23 48  1  0
 24 49  1  0
 27 50  1  0
 28 51  1  0
M  END
>  <Unnamed: 0>  (259) 
1639

>  <ID>  (259) 
TRAIN_1639

>  <Canonical_Smiles>  (259) 
CS(=O)(=O)N1C2CCC1CC(C2)NC(=O)Cn3cc(cn3)c4ccc(F)cc4

>  <Inhibition>  (259) 
4.904192

>  <TDC_conf_true_inhibitor>  (259) 
0

>  <TDC_conf_non_inhibitor>  (259) 
1

>  <split>  (259) 
1

$$$$
259
     RDKit          3D

 31 32  0  0  0  0  0  0  0  0999 V2000
   -0.7243    1.5005    1.5983 C   0  0  0  0  0  0  0  0  0  0  0  0
   -1.0568    0.4892    0.5142 C   0  0  0  0  0  0  0  0  0  0  0  0
   -2.2725    0.4632   -0.0952 C   0  0  0  0  0  0  0  0  0  0  0  0
   -2.5164   -0.4890   -1.2173 C   0  0  0  0  0  0  0  0  0  0  0  0
   -1.7237   -1.3662   -1.5527 O   0  0  0  0  0  0  0  0  0  0  0  0
   -3.7065   -0.3467   -1.8710 N   0  0  0  0  0  0  0  0  0  0  0  0
   -4.6993    0.5272   -1.5627 C   0  0  0  0  0  0  0  0  0  0  0  0
   -5.7874    0.4898   -2.1269 O   0  0  0  0  0  0  0  0  0  0  0  0
   -4.4403    1.4176   -0.5704 N   0  0  0  0  0  0  0  0  0  0  0  0
   -3.4048    1.3397    0.3183 C   0  0  0  0  0  0  0  0  0  0  0  0
   -3.4772    1.9255    1.3926 O   0  0  0  0  0  0  0  0  0  0  0  0
   -0.0044   -0.3614    0.1699 N   0  0  0  0  0  0  0  0  0  0  0  0
    1.1340   -0.5951    0.8837 N   0  0  0  0  0  0  0  0  0  0  0  0
    2.3965   -0.7336    0.2630 C   0  0  0  0  0  0  0  0  0  0  0  0
    3.4791   -1.2260    1.0044 C   0  0  0  0  0  0  0  0  0  0  0  0
    4.7529   -1.3216    0.4369 C   0  0  0  0  0  0  0  0  0  0  0  0
    4.9647   -0.9033   -0.8745 C   0  0  0  0  0  0  0  0  0  0  0  0
    3.9066   -0.3793   -1.6130 C   0  0  0  0  0  0  0  0  0  0  0  0
    2.6343   -0.2849   -1.0423 C   0  0  0  0  0  0  0  0  0  0  0  0
    0.3522    1.6961    1.6562 H   0  0  0  0  0  0  0  0  0  0  0  0
   -1.0530    1.1328    2.5754 H   0  0  0  0  0  0  0  0  0  0  0  0
   -1.1717    2.4794    1.4021 H   0  0  0  0  0  0  0  0  0  0  0  0
   -3.9028   -1.0119   -2.6055 H   0  0  0  0  0  0  0  0  0  0  0  0
   -5.2262    1.9813   -0.2769 H   0  0  0  0  0  0  0  0  0  0  0  0
   -0.2468   -1.0800   -0.5314 H   0  0  0  0  0  0  0  0  0  0  0  0
    1.0247   -1.2281    1.6766 H   0  0  0  0  0  0  0  0  0  0  0  0
    3.3393   -1.5395    2.0354 H   0  0  0  0  0  0  0  0  0  0  0  0
    5.5795   -1.7149    1.0224 H   0  0  0  0  0  0  0  0  0  0  0  0
    5.9550   -0.9737   -1.3164 H   0  0  0  0  0  0  0  0  0  0  0  0
    4.0694   -0.0347   -2.6306 H   0  0  0  0  0  0  0  0  0  0  0  0
    1.8257    0.1477   -1.6251 H   0  0  0  0  0  0  0  0  0  0  0  0
  1  2  1  0
  2  3  2  3
  3  4  1  0
  4  5  2  0
  4  6  1  0
  6  7  1  0
  7  8  2  0
  7  9  1  0
  9 10  1  0
 10 11  2  0
  2 12  1  0
 12 13  1  0
 13 14  1  0
 14 15  2  0
 15 16  1  0
 16 17  2  0
 17 18  1  0
 18 19  2  0
 10  3  1  0
 19 14  1  0
  1 20  1  0
  1 21  1  0
  1 22  1  0
  6 23  1  0
  9 24  1  0
 12 25  1  0
 13 26  1  0
 15 27  1  0
 16 28  1  0
 17 29  1  0
 18 30  1  0
 19 31  1  0
M  END
>  <Unnamed: 0>  (260) 
1641

>  <ID>  (260) 
TRAIN_1641

>  <Canonical_Smiles>  (260) 
CC(=C1C(=O)NC(=O)NC1=O)NNc2ccccc2

>  <Inhibition>  (260) 
1.030176

>  <TDC_conf_true_inhibitor>  (260) 
0

>  <TDC_conf_non_inhibitor>  (260) 
1

>  <split>  (260) 
1

$$$$
260
     RDKit          3D

 35 36  0  0  0  0  0  0  0  0999 V2000
   -2.6541    1.3869    2.7325 C   0  0  0  0  0  0  0  0  0  0  0  0
   -2.3439   -0.0679    2.4080 C   0  0  0  0  0  0  0  0  0  0  0  0
   -2.3564   -0.3344    0.9238 C   0  0  0  0  0  0  0  0  0  0  0  0
   -3.4892   -0.7838    0.2553 C   0  0  0  0  0  0  0  0  0  0  0  0
   -4.7831   -1.0661    0.9628 C   0  0  0  0  0  0  0  0  0  0  0  0
   -3.5025   -1.0056   -1.0749 N   0  0  0  0  0  0  0  0  0  0  0  0
   -2.3782   -0.7811   -1.7488 C   0  0  0  0  0  0  0  0  0  0  0  0
   -2.4007   -0.9894   -3.1119 N   0  0  0  0  0  0  0  0  0  0  0  0
   -1.2502   -0.3305   -1.2129 N   0  0  0  0  0  0  0  0  0  0  0  0
   -1.2340   -0.1034    0.1218 C   0  0  0  0  0  0  0  0  0  0  0  0
   -0.0483    0.3721    0.7610 N   0  0  0  0  0  0  0  0  0  0  0  0
    0.6995    1.3558   -0.0202 N   0  0  0  0  0  0  0  0  0  0  0  0
    1.1111    0.1777    0.1546 C   0  0  0  0  0  0  0  0  0  0  0  0
    2.2977   -0.9258   -0.1515 S   0  0  0  0  0  0  0  0  0  0  0  0
    3.2781    0.0019   -1.3528 C   0  0  0  0  0  0  0  0  0  0  0  0
    4.1542    0.9976   -0.6570 C   0  0  0  0  0  0  0  0  0  0  0  0
    5.4613    0.8699   -0.3752 C   0  0  0  0  0  0  0  0  0  0  0  0
    6.3394   -0.3131   -0.6359 C   0  0  0  0  0  0  0  0  0  0  0  0
    6.2759    2.1926    0.4057 Cl  0  0  0  0  0  0  0  0  0  0  0  0
   -2.6452    1.5415    3.8162 H   0  0  0  0  0  0  0  0  0  0  0  0
   -3.6408    1.6777    2.3573 H   0  0  0  0  0  0  0  0  0  0  0  0
   -1.9158    2.0634    2.2896 H   0  0  0  0  0  0  0  0  0  0  0  0
   -3.0625   -0.7161    2.9217 H   0  0  0  0  0  0  0  0  0  0  0  0
   -1.3713   -0.3430    2.8337 H   0  0  0  0  0  0  0  0  0  0  0  0
   -5.5654   -1.3411    0.2470 H   0  0  0  0  0  0  0  0  0  0  0  0
   -4.6619   -1.9009    1.6599 H   0  0  0  0  0  0  0  0  0  0  0  0
   -5.1290   -0.1813    1.5053 H   0  0  0  0  0  0  0  0  0  0  0  0
   -3.3525   -0.9210   -3.4445 H   0  0  0  0  0  0  0  0  0  0  0  0
   -1.7138   -0.3963   -3.5557 H   0  0  0  0  0  0  0  0  0  0  0  0
    2.6266    0.5145   -2.0693 H   0  0  0  0  0  0  0  0  0  0  0  0
    3.8655   -0.7117   -1.9373 H   0  0  0  0  0  0  0  0  0  0  0  0
    3.6567    1.9313   -0.3926 H   0  0  0  0  0  0  0  0  0  0  0  0
    6.8306   -0.6369    0.2882 H   0  0  0  0  0  0  0  0  0  0  0  0
    7.1138   -0.0585   -1.3669 H   0  0  0  0  0  0  0  0  0  0  0  0
    5.7885   -1.1748   -1.0211 H   0  0  0  0  0  0  0  0  0  0  0  0
  1  2  1  0
  2  3  1  0
  3  4  2  0
  4  5  1  0
  4  6  1  0
  6  7  2  0
  7  8  1  0
  7  9  1  0
  9 10  2  0
 10 11  1  0
 11 12  1  0
 12 13  2  0
 13 14  1  0
 14 15  1  0
 15 16  1  0
 16 17  2  0
 17 18  1  0
 17 19  1  0
 10  3  1  0
 13 11  1  0
  1 20  1  0
  1 21  1  0
  1 22  1  0
  2 23  1  0
  2 24  1  0
  5 25  1  0
  5 26  1  0
  5 27  1  0
  8 28  1  0
  8 29  1  0
 15 30  1  0
 15 31  1  0
 16 32  1  0
 18 33  1  0
 18 34  1  0
 18 35  1  0
M  END
>  <Unnamed: 0>  (261) 
1646

>  <ID>  (261) 
TRAIN_1646

>  <Canonical_Smiles>  (261) 
CCc1c(C)nc(N)nc1N2N=C2SC\C=C(/C)\Cl

>  <Inhibition>  (261) 
44.292341

>  <TDC_conf_true_inhibitor>  (261) 
1

>  <TDC_conf_non_inhibitor>  (261) 
0

>  <split>  (261) 
1

$$$$
261
     RDKit          3D

 35 37  0  0  0  0  0  0  0  0999 V2000
   -1.1592   -3.6080    0.5154 C   0  0  0  0  0  0  0  0  0  0  0  0
   -1.3580   -2.1446    0.1534 C   0  0  0  0  0  0  0  0  0  0  0  0
   -0.9246   -1.2231    1.2931 C   0  0  0  0  0  0  0  0  0  0  0  0
   -1.2137    0.2095    0.9827 C   0  0  0  0  0  0  0  0  0  0  0  0
   -2.3174    0.8333    1.3559 N   0  0  0  0  0  0  0  0  0  0  0  0
   -2.2169    2.1239    0.8978 C   0  0  0  0  0  0  0  0  0  0  0  0
   -3.3167    3.0796    1.1666 C   0  0  0  0  0  0  0  0  0  0  0  0
   -1.0230    2.2937    0.2274 C   0  0  0  0  0  0  0  0  0  0  0  0
   -0.3883    3.3881   -0.4421 C   0  0  0  0  0  0  0  0  0  0  0  0
   -1.1310    4.9275   -0.5344 Cl  0  0  0  0  0  0  0  0  0  0  0  0
    0.7736    3.2616   -1.0057 N   0  0  0  0  0  0  0  0  0  0  0  0
    1.4125    2.0039   -0.9485 C   0  0  0  0  0  0  0  0  0  0  0  0
    2.6593    1.8601   -1.5494 C   0  0  0  0  0  0  0  0  0  0  0  0
    3.3098    0.6290   -1.5072 C   0  0  0  0  0  0  0  0  0  0  0  0
    2.6869   -0.4301   -0.8638 C   0  0  0  0  0  0  0  0  0  0  0  0
    3.3826   -1.6218   -0.8535 O   0  0  0  0  0  0  0  0  0  0  0  0
    2.6683   -2.6876   -0.2387 C   0  0  0  0  0  0  0  0  0  0  0  0
    1.4796   -0.3427   -0.2650 N   0  0  0  0  0  0  0  0  0  0  0  0
    0.8733    0.8686   -0.3188 C   0  0  0  0  0  0  0  0  0  0  0  0
   -0.3907    1.0677    0.2814 N   0  0  0  0  0  0  0  0  0  0  0  0
   -1.7645   -3.8815    1.3856 H   0  0  0  0  0  0  0  0  0  0  0  0
   -1.4577   -4.2489   -0.3201 H   0  0  0  0  0  0  0  0  0  0  0  0
   -0.1109   -3.8182    0.7481 H   0  0  0  0  0  0  0  0  0  0  0  0
   -2.4160   -1.9769   -0.0839 H   0  0  0  0  0  0  0  0  0  0  0  0
   -0.7934   -1.9179   -0.7583 H   0  0  0  0  0  0  0  0  0  0  0  0
    0.1290   -1.3728    1.5473 H   0  0  0  0  0  0  0  0  0  0  0  0
   -1.4850   -1.4912    2.1986 H   0  0  0  0  0  0  0  0  0  0  0  0
   -4.1217    2.5977    1.7309 H   0  0  0  0  0  0  0  0  0  0  0  0
   -2.9567    3.9273    1.7572 H   0  0  0  0  0  0  0  0  0  0  0  0
   -3.7428    3.4523    0.2303 H   0  0  0  0  0  0  0  0  0  0  0  0
    3.1230    2.7065   -2.0488 H   0  0  0  0  0  0  0  0  0  0  0  0
    4.2827    0.4975   -1.9683 H   0  0  0  0  0  0  0  0  0  0  0  0
    3.2980   -3.5814   -0.2838 H   0  0  0  0  0  0  0  0  0  0  0  0
    1.7429   -2.9053   -0.7822 H   0  0  0  0  0  0  0  0  0  0  0  0
    2.4667   -2.4759    0.8169 H   0  0  0  0  0  0  0  0  0  0  0  0
  1  2  1  0
  2  3  1  0
  3  4  1  0
  4  5  2  0
  5  6  1  0
  6  7  1  0
  6  8  2  0
  8  9  1  0
  9 10  1  0
  9 11  2  0
 11 12  1  0
 12 13  2  0
 13 14  1  0
 14 15  2  0
 15 16  1  0
 16 17  1  0
 15 18  1  0
 18 19  2  0
 19 20  1  0
 20  4  1  0
 20  8  1  0
 19 12  1  0
  1 21  1  0
  1 22  1  0
  1 23  1  0
  2 24  1  0
  2 25  1  0
  3 26  1  0
  3 27  1  0
  7 28  1  0
  7 29  1  0
  7 30  1  0
 13 31  1  0
 14 32  1  0
 17 33  1  0
 17 34  1  0
 17 35  1  0
M  END
>  <Unnamed: 0>  (262) 
1647

>  <ID>  (262) 
TRAIN_1647

>  <Canonical_Smiles>  (262) 
CCCc1nc(C)c2c(Cl)nc3ccc(OC)nc3n12

>  <Inhibition>  (262) 
79.450341

>  <TDC_conf_true_inhibitor>  (262) 
1

>  <TDC_conf_non_inhibitor>  (262) 
0

>  <split>  (262) 
1

$$$$
262
     RDKit          3D

 57 61  0  0  0  0  0  0  0  0999 V2000
    2.4541    2.1298    0.0233 O   0  0  0  0  0  0  0  0  0  0  0  0
    2.1814    1.1067    0.6574 C   0  0  0  0  0  0  0  0  0  0  0  0
    3.2734    0.4303    1.5014 C   0  0  0  0  0  0  0  0  0  0  0  0
    4.5359    0.4814    0.7789 N   0  0  0  0  0  0  0  0  0  0  0  0
    5.3583    1.5730    0.8743 C   0  0  0  0  0  0  0  0  0  0  0  0
    6.4765    1.7113    0.2455 N   0  0  0  0  0  0  0  0  0  0  0  0
    6.8563    0.6959   -0.6005 C   0  0  0  0  0  0  0  0  0  0  0  0
    6.1173   -0.4049   -0.8007 C   0  0  0  0  0  0  0  0  0  0  0  0
    4.8448   -0.5467   -0.0804 C   0  0  0  0  0  0  0  0  0  0  0  0
    4.1370   -1.5343   -0.2664 O   0  0  0  0  0  0  0  0  0  0  0  0
    8.1194    0.9431   -1.3202 C   0  0  0  0  0  0  0  0  0  0  0  0
    9.3200    0.0674   -1.0466 C   0  0  0  0  0  0  0  0  0  0  0  0
    9.3172    1.4949   -0.5879 C   0  0  0  0  0  0  0  0  0  0  0  0
    0.8738    0.6012    0.6881 N   0  0  0  0  0  0  0  0  0  0  0  0
   -0.0511    1.2058   -0.2788 C   0  0  0  0  0  0  0  0  0  0  0  0
   -1.5135    1.0062    0.0917 C   0  0  0  0  0  0  0  0  0  0  0  0
   -1.8080   -0.4802    0.3167 C   0  0  0  0  0  0  0  0  0  0  0  0
   -0.8866   -1.0193    1.4113 C   0  0  0  0  0  0  0  0  0  0  0  0
    0.5832   -0.7835    1.0737 C   0  0  0  0  0  0  0  0  0  0  0  0
   -3.2269   -0.7055    0.6004 N   0  0  0  0  0  0  0  0  0  0  0  0
   -3.8143   -0.5426    1.9000 C   0  0  0  0  0  0  0  0  0  0  0  0
   -5.2910   -0.6358    1.5787 C   0  0  0  0  0  0  0  0  0  0  0  0
   -6.1337   -0.6115    2.4702 O   0  0  0  0  0  0  0  0  0  0  0  0
   -5.4525   -0.7202    0.2089 N   0  0  0  0  0  0  0  0  0  0  0  0
   -4.2057   -0.7118   -0.3932 C   0  0  0  0  0  0  0  0  0  0  0  0
   -3.9149   -0.6866   -1.5817 O   0  0  0  0  0  0  0  0  0  0  0  0
   -6.7086   -0.7636   -0.4808 C   0  0  0  0  0  0  0  0  0  0  0  0
   -7.9348   -0.7041    0.2054 C   0  0  0  0  0  0  0  0  0  0  0  0
   -9.1646   -0.7376   -0.4680 C   0  0  0  0  0  0  0  0  0  0  0  0
   -9.2021   -0.8324   -1.8510 C   0  0  0  0  0  0  0  0  0  0  0  0
   -8.0094   -0.8995   -2.5577 C   0  0  0  0  0  0  0  0  0  0  0  0
   -6.7820   -0.8661   -1.8806 C   0  0  0  0  0  0  0  0  0  0  0  0
    3.3598    0.9895    2.4399 H   0  0  0  0  0  0  0  0  0  0  0  0
    3.0587   -0.6110    1.7322 H   0  0  0  0  0  0  0  0  0  0  0  0
    5.0036    2.3650    1.5548 H   0  0  0  0  0  0  0  0  0  0  0  0
    6.4025   -1.1934   -1.4840 H   0  0  0  0  0  0  0  0  0  0  0  0
    7.9770    1.2798   -2.3443 H   0  0  0  0  0  0  0  0  0  0  0  0
    9.2536   -0.7022   -0.2881 H   0  0  0  0  0  0  0  0  0  0  0  0
    9.9395   -0.1969   -1.8950 H   0  0  0  0  0  0  0  0  0  0  0  0
    9.9361    2.2048   -1.1201 H   0  0  0  0  0  0  0  0  0  0  0  0
    9.2397    1.6846    0.4785 H   0  0  0  0  0  0  0  0  0  0  0  0
    0.1437    2.2827   -0.3681 H   0  0  0  0  0  0  0  0  0  0  0  0
    0.1612    0.7546   -1.2591 H   0  0  0  0  0  0  0  0  0  0  0  0
   -1.7440    1.5778    1.0024 H   0  0  0  0  0  0  0  0  0  0  0  0
   -2.1500    1.4134   -0.7051 H   0  0  0  0  0  0  0  0  0  0  0  0
   -1.5907   -1.0143   -0.6195 H   0  0  0  0  0  0  0  0  0  0  0  0
   -1.0612   -2.0927    1.5624 H   0  0  0  0  0  0  0  0  0  0  0  0
   -1.1107   -0.5263    2.3679 H   0  0  0  0  0  0  0  0  0  0  0  0
    0.9005   -1.4282    0.2447 H   0  0  0  0  0  0  0  0  0  0  0  0
    1.1655   -1.0601    1.9553 H   0  0  0  0  0  0  0  0  0  0  0  0
   -3.5048   -1.3564    2.5622 H   0  0  0  0  0  0  0  0  0  0  0  0
   -3.5793    0.4462    2.3059 H   0  0  0  0  0  0  0  0  0  0  0  0
   -7.9878   -0.6297    1.2873 H   0  0  0  0  0  0  0  0  0  0  0  0
  -10.0912   -0.6876    0.0993 H   0  0  0  0  0  0  0  0  0  0  0  0
  -10.1533   -0.8571   -2.3748 H   0  0  0  0  0  0  0  0  0  0  0  0
   -8.0232   -0.9754   -3.6427 H   0  0  0  0  0  0  0  0  0  0  0  0
   -5.8943   -0.9277   -2.5026 H   0  0  0  0  0  0  0  0  0  0  0  0
  1  2  2  0
  2  3  1  0
  3  4  1  0
  4  5  1  0
  5  6  2  0
  6  7  1  0
  7  8  2  0
  8  9  1  0
  9 10  2  0
  7 11  1  0
 11 12  1  0
 12 13  1  0
  2 14  1  0
 14 15  1  0
 15 16  1  0
 16 17  1  0
 17 18  1  0
 18 19  1  0
 17 20  1  0
 20 21  1  0
 21 22  1  0
 22 23  2  0
 22 24  1  0
 24 25  1  0
 25 26  2  0
 24 27  1  0
 27 28  2  0
 28 29  1  0
 29 30  2  0
 30 31  1  0
 31 32  2  0
  9  4  1  0
 13 11  1  0
 19 14  1  0
 25 20  1  0
 32 27  1  0
  3 33  1  0
  3 34  1  0
  5 35  1  0
  8 36  1  0
 11 37  1  0
 12 38  1  0
 12 39  1  0
 13 40  1  0
 13 41  1  0
 15 42  1  0
 15 43  1  0
 16 44  1  0
 16 45  1  0
 17 46  1  0
 18 47  1  0
 18 48  1  0
 19 49  1  0
 19 50  1  0
 21 51  1  0
 21 52  1  0
 28 53  1  0
 29 54  1  0
 30 55  1  0
 31 56  1  0
 32 57  1  0
M  END
>  <Unnamed: 0>  (263) 
1650

>  <ID>  (263) 
TRAIN_1650

>  <Canonical_Smiles>  (263) 
O=C(CN1C=NC(=CC1=O)C2CC2)N3CCC(CC3)N4CC(=O)N(C4=O)c5ccccc5

>  <Inhibition>  (263) 
4.791272

>  <TDC_conf_true_inhibitor>  (263) 
0

>  <TDC_conf_non_inhibitor>  (263) 
1

>  <split>  (263) 
1

$$$$
263
     RDKit          3D

 30 31  0  0  0  0  0  0  0  0999 V2000
   -3.3443    2.4372   -0.4769 C   0  0  0  0  0  0  0  0  0  0  0  0
   -2.6002    1.2234   -0.9238 C   0  0  0  0  0  0  0  0  0  0  0  0
   -2.1686    0.1687   -0.2056 C   0  0  0  0  0  0  0  0  0  0  0  0
   -2.3330   -0.0358    1.2689 C   0  0  0  0  0  0  0  0  0  0  0  0
   -1.5074   -0.7838   -0.9800 N   0  0  0  0  0  0  0  0  0  0  0  0
   -0.9399   -2.0232   -0.4644 C   0  0  0  0  0  0  0  0  0  0  0  0
    0.4644   -1.8992    0.1432 C   0  0  0  0  0  0  0  0  0  0  0  0
    0.9545   -2.8433    0.7598 O   0  0  0  0  0  0  0  0  0  0  0  0
    1.0943   -0.7033   -0.0913 N   0  0  0  0  0  0  0  0  0  0  0  0
    2.3652   -0.3049    0.3214 C   0  0  0  0  0  0  0  0  0  0  0  0
    3.2610   -1.0872    1.0460 C   0  0  0  0  0  0  0  0  0  0  0  0
    4.4895   -0.6425    1.4260 N   0  0  0  0  0  0  0  0  0  0  0  0
    4.7907    0.6166    1.0468 C   0  0  0  0  0  0  0  0  0  0  0  0
    3.9058    1.3981    0.3271 C   0  0  0  0  0  0  0  0  0  0  0  0
    2.6802    0.9588   -0.0457 N   0  0  0  0  0  0  0  0  0  0  0  0
   -1.4090   -0.4962   -2.3341 C   0  0  0  0  0  0  0  0  0  0  0  0
   -0.8615   -1.1564   -3.2001 O   0  0  0  0  0  0  0  0  0  0  0  0
   -2.1908    1.0541   -2.6174 S   0  0  0  0  0  0  0  0  0  0  0  0
   -2.7540    3.3397   -0.6687 H   0  0  0  0  0  0  0  0  0  0  0  0
   -4.2930    2.5258   -1.0172 H   0  0  0  0  0  0  0  0  0  0  0  0
   -3.5809    2.4220    0.5895 H   0  0  0  0  0  0  0  0  0  0  0  0
   -2.9599   -0.9113    1.4664 H   0  0  0  0  0  0  0  0  0  0  0  0
   -2.8032    0.8165    1.7651 H   0  0  0  0  0  0  0  0  0  0  0  0
   -1.3612   -0.1849    1.7500 H   0  0  0  0  0  0  0  0  0  0  0  0
   -0.8685   -2.7527   -1.2796 H   0  0  0  0  0  0  0  0  0  0  0  0
   -1.6124   -2.4391    0.2928 H   0  0  0  0  0  0  0  0  0  0  0  0
    0.6125    0.0136   -0.6174 H   0  0  0  0  0  0  0  0  0  0  0  0
    3.0418   -2.1019    1.3540 H   0  0  0  0  0  0  0  0  0  0  0  0
    5.7684    0.9827    1.3381 H   0  0  0  0  0  0  0  0  0  0  0  0
    4.1595    2.4085    0.0270 H   0  0  0  0  0  0  0  0  0  0  0  0
  1  2  1  0
  2  3  2  0
  3  4  1  0
  3  5  1  0
  5  6  1  0
  6  7  1  0
  7  8  2  0
  7  9  1  0
  9 10  1  0
 10 11  2  0
 11 12  1  0
 12 13  2  0
 13 14  1  0
 14 15  2  0
  5 16  1  0
 16 17  2  0
 16 18  1  0
 18  2  1  0
 15 10  1  0
  1 19  1  0
  1 20  1  0
  1 21  1  0
  4 22  1  0
  4 23  1  0
  4 24  1  0
  6 25  1  0
  6 26  1  0
  9 27  1  0
 11 28  1  0
 13 29  1  0
 14 30  1  0
M  END
>  <Unnamed: 0>  (264) 
1653

>  <ID>  (264) 
TRAIN_1653

>  <Canonical_Smiles>  (264) 
CC1=C(C)N(CC(=O)Nc2cnccn2)C(=O)S1

>  <Inhibition>  (264) 
63.68972

>  <TDC_conf_true_inhibitor>  (264) 
1

>  <TDC_conf_non_inhibitor>  (264) 
0

>  <split>  (264) 
1

$$$$
264
     RDKit          3D

 30 31  0  0  0  0  0  0  0  0999 V2000
   -3.4697   -2.0127    0.2881 C   0  0  0  0  0  0  0  0  0  0  0  0
   -2.3057   -1.1590    0.1444 N   0  0  0  0  0  0  0  0  0  0  0  0
   -2.5201    0.1638   -0.1883 C   0  0  0  0  0  0  0  0  0  0  0  0
   -3.6577    0.6114   -0.3501 O   0  0  0  0  0  0  0  0  0  0  0  0
   -1.3773    0.9515   -0.3684 N   0  0  0  0  0  0  0  0  0  0  0  0
   -1.6250    2.2452   -0.9940 C   0  0  0  0  0  0  0  0  0  0  0  0
   -0.0857    0.4688   -0.1408 C   0  0  0  0  0  0  0  0  0  0  0  0
    0.0951   -0.8622   -0.0364 C   0  0  0  0  0  0  0  0  0  0  0  0
    1.4168   -1.4424    0.0529 C   0  0  0  0  0  0  0  0  0  0  0  0
    2.5266   -0.6905    0.0320 C   0  0  0  0  0  0  0  0  0  0  0  0
    3.8573   -1.3231    0.1289 C   0  0  0  0  0  0  0  0  0  0  0  0
    4.8905   -0.8151    0.5218 O   0  0  0  0  0  0  0  0  0  0  0  0
    3.8558   -2.6106   -0.2735 O   0  0  0  0  0  0  0  0  0  0  0  0
    2.3681    0.7870   -0.0162 C   0  0  0  0  0  0  0  0  0  0  0  0
    3.3549    1.5199   -0.0351 O   0  0  0  0  0  0  0  0  0  0  0  0
    1.0516    1.2939   -0.0317 N   0  0  0  0  0  0  0  0  0  0  0  0
    0.9584    2.7184    0.2616 C   0  0  0  0  0  0  0  0  0  0  0  0
   -1.0848   -1.7665   -0.0229 C   0  0  0  0  0  0  0  0  0  0  0  0
   -0.9367   -2.9826   -0.1354 O   0  0  0  0  0  0  0  0  0  0  0  0
   -4.2699   -1.4844    0.8156 H   0  0  0  0  0  0  0  0  0  0  0  0
   -3.2188   -2.9208    0.8447 H   0  0  0  0  0  0  0  0  0  0  0  0
   -3.8243   -2.2917   -0.7094 H   0  0  0  0  0  0  0  0  0  0  0  0
   -2.5538    2.2367   -1.5748 H   0  0  0  0  0  0  0  0  0  0  0  0
   -0.8313    2.4860   -1.7059 H   0  0  0  0  0  0  0  0  0  0  0  0
   -1.7272    3.0132   -0.2235 H   0  0  0  0  0  0  0  0  0  0  0  0
    1.4758   -2.5272    0.1188 H   0  0  0  0  0  0  0  0  0  0  0  0
    4.7919   -2.8838   -0.1647 H   0  0  0  0  0  0  0  0  0  0  0  0
    0.8916    3.2830   -0.6713 H   0  0  0  0  0  0  0  0  0  0  0  0
    1.8439    3.0751    0.7989 H   0  0  0  0  0  0  0  0  0  0  0  0
    0.1096    2.9185    0.9203 H   0  0  0  0  0  0  0  0  0  0  0  0
  1  2  1  0
  2  3  1  0
  3  4  2  0
  3  5  1  0
  5  6  1  0
  5  7  1  0
  7  8  2  0
  8  9  1  0
  9 10  2  0
 10 11  1  0
 11 12  2  0
 11 13  1  0
 10 14  1  0
 14 15  2  0
 14 16  1  0
 16 17  1  0
  8 18  1  0
 18 19  2  0
 18  2  1  0
 16  7  1  0
  1 20  1  0
  1 21  1  0
  1 22  1  0
  6 23  1  0
  6 24  1  0
  6 25  1  0
  9 26  1  0
 13 27  1  0
 17 28  1  0
 17 29  1  0
 17 30  1  0
M  END
>  <Unnamed: 0>  (265) 
1657

>  <ID>  (265) 
TRAIN_1657

>  <Canonical_Smiles>  (265) 
CN1C(=O)N(C)C2=C(C=C(C(=O)O)C(=O)N2C)C1=O

>  <Inhibition>  (265) 
18.953147

>  <TDC_conf_true_inhibitor>  (265) 
0

>  <TDC_conf_non_inhibitor>  (265) 
1

>  <split>  (265) 
1

$$$$
265
     RDKit          3D

 34 36  0  0  0  0  0  0  0  0999 V2000
    2.1881   -1.6591   -1.9708 C   0  0  0  0  0  0  0  0  0  0  0  0
    2.0464   -0.5977   -0.9693 N   0  0  0  0  0  0  0  0  0  0  0  0
    0.7129   -0.2203   -0.6611 C   0  0  0  0  0  0  0  0  0  0  0  0
    0.4054    1.1882   -0.6045 C   0  0  0  0  0  0  0  0  0  0  0  0
   -0.8652    1.7285   -0.3093 C   0  0  0  0  0  0  0  0  0  0  0  0
   -1.7949    0.7213   -0.0795 C   0  0  0  0  0  0  0  0  0  0  0  0
   -3.1209    0.8994    0.2329 C   0  0  0  0  0  0  0  0  0  0  0  0
   -3.9604    2.1073    0.4230 C   0  0  0  0  0  0  0  0  0  0  0  0
   -3.6093   -0.3811    0.3499 N   0  0  0  0  0  0  0  0  0  0  0  0
   -4.9673   -0.7643    0.6653 C   0  0  0  0  0  0  0  0  0  0  0  0
   -2.6919   -1.3500    0.1528 N   0  0  0  0  0  0  0  0  0  0  0  0
   -1.5529   -0.6979   -0.1255 C   0  0  0  0  0  0  0  0  0  0  0  0
   -0.2777   -1.2070   -0.4234 C   0  0  0  0  0  0  0  0  0  0  0  0
    3.1937   -0.4065   -0.1594 C   0  0  0  0  0  0  0  0  0  0  0  0
    3.1045    0.2540    1.0594 C   0  0  0  0  0  0  0  0  0  0  0  0
    4.2620    0.4084    1.7924 C   0  0  0  0  0  0  0  0  0  0  0  0
    5.4561   -0.0418    1.3889 N   0  0  0  0  0  0  0  0  0  0  0  0
    5.4393   -0.6668    0.2082 C   0  0  0  0  0  0  0  0  0  0  0  0
    6.9353   -1.2695   -0.3520 Cl  0  0  0  0  0  0  0  0  0  0  0  0
    4.3819   -0.8787   -0.5853 N   0  0  0  0  0  0  0  0  0  0  0  0
    1.3385   -1.6770   -2.6650 H   0  0  0  0  0  0  0  0  0  0  0  0
    2.2600   -2.6435   -1.4934 H   0  0  0  0  0  0  0  0  0  0  0  0
    3.0743   -1.5044   -2.5979 H   0  0  0  0  0  0  0  0  0  0  0  0
    1.2105    1.8921   -0.8244 H   0  0  0  0  0  0  0  0  0  0  0  0
   -1.0597    2.7909   -0.2822 H   0  0  0  0  0  0  0  0  0  0  0  0
   -3.3576    3.0200    0.4429 H   0  0  0  0  0  0  0  0  0  0  0  0
   -4.5085    2.0558    1.3693 H   0  0  0  0  0  0  0  0  0  0  0  0
   -4.6843    2.2013   -0.3928 H   0  0  0  0  0  0  0  0  0  0  0  0
   -5.0910   -1.8381    0.5020 H   0  0  0  0  0  0  0  0  0  0  0  0
   -5.6477   -0.2143    0.0108 H   0  0  0  0  0  0  0  0  0  0  0  0
   -5.1552   -0.5204    1.7137 H   0  0  0  0  0  0  0  0  0  0  0  0
   -0.0846   -2.2696   -0.4441 H   0  0  0  0  0  0  0  0  0  0  0  0
    2.1686    0.6287    1.4513 H   0  0  0  0  0  0  0  0  0  0  0  0
    4.2515    0.9124    2.7546 H   0  0  0  0  0  0  0  0  0  0  0  0
  1  2  1  0
  2  3  1  0
  3  4  1  0
  4  5  2  0
  5  6  1  0
  6  7  2  0
  7  8  1  0
  7  9  1  0
  9 10  1  0
  9 11  1  0
 11 12  2  0
 12 13  1  0
  2 14  1  0
 14 15  2  0
 15 16  1  0
 16 17  2  0
 17 18  1  0
 18 19  1  0
 18 20  2  0
 13  3  2  0
 12  6  1  0
 20 14  1  0
  1 21  1  0
  1 22  1  0
  1 23  1  0
  4 24  1  0
  5 25  1  0
  8 26  1  0
  8 27  1  0
  8 28  1  0
 10 29  1  0
 10 30  1  0
 10 31  1  0
 13 32  1  0
 15 33  1  0
 16 34  1  0
M  END
>  <Unnamed: 0>  (266) 
1660

>  <ID>  (266) 
TRAIN_1660

>  <Canonical_Smiles>  (266) 
CN(c1ccc2c(C)n(C)nc2c1)c3ccnc(Cl)n3

>  <Inhibition>  (266) 
7.459653

>  <TDC_conf_true_inhibitor>  (266) 
0

>  <TDC_conf_non_inhibitor>  (266) 
0

>  <split>  (266) 
1

$$$$
266
     RDKit          3D

 38 40  0  0  0  0  0  0  0  0999 V2000
    1.6336    1.3803    1.5811 O   0  0  0  0  0  0  0  0  0  0  0  0
    1.8563    0.8652    0.4824 C   0  0  0  0  0  0  0  0  0  0  0  0
    1.0253   -0.1092   -0.0503 N   0  0  0  0  0  0  0  0  0  0  0  0
    1.1992   -0.7411   -1.3605 C   0  0  0  0  0  0  0  0  0  0  0  0
   -0.1371   -0.9056   -2.0893 C   0  0  0  0  0  0  0  0  0  0  0  0
   -1.1836   -1.5851   -1.2047 C   0  0  0  0  0  0  0  0  0  0  0  0
   -1.3526   -0.8155    0.1137 C   0  0  0  0  0  0  0  0  0  0  0  0
    0.0103   -0.7137    0.8135 C   0  0  0  0  0  0  0  0  0  0  0  0
   -2.2469   -1.5161    0.9920 O   0  0  0  0  0  0  0  0  0  0  0  0
   -3.5524   -1.0713    0.9169 C   0  0  0  0  0  0  0  0  0  0  0  0
   -4.3689   -1.3171    2.0073 C   0  0  0  0  0  0  0  0  0  0  0  0
   -5.6840   -0.8733    1.9551 C   0  0  0  0  0  0  0  0  0  0  0  0
   -6.1100   -0.2416    0.8024 C   0  0  0  0  0  0  0  0  0  0  0  0
   -5.2993   -0.0383   -0.2607 N   0  0  0  0  0  0  0  0  0  0  0  0
   -4.0044   -0.4636   -0.2022 N   0  0  0  0  0  0  0  0  0  0  0  0
    2.9117    1.2791   -0.2974 N   0  0  0  0  0  0  0  0  0  0  0  0
    3.3961    2.6419   -0.1363 C   0  0  0  0  0  0  0  0  0  0  0  0
    4.8511    2.4988    0.2709 C   0  0  0  0  0  0  0  0  0  0  0  0
    5.1919    1.2079   -0.2419 N   0  0  0  0  0  0  0  0  0  0  0  0
    4.0363    0.4356   -0.3491 C   0  0  0  0  0  0  0  0  0  0  0  0
    4.0739   -0.7743   -0.5152 O   0  0  0  0  0  0  0  0  0  0  0  0
    1.6577   -1.7264   -1.1906 H   0  0  0  0  0  0  0  0  0  0  0  0
    1.8731   -0.1596   -1.9935 H   0  0  0  0  0  0  0  0  0  0  0  0
    0.0075   -1.4855   -3.0085 H   0  0  0  0  0  0  0  0  0  0  0  0
   -0.5111    0.0837   -2.3868 H   0  0  0  0  0  0  0  0  0  0  0  0
   -0.8904   -2.6216   -0.9987 H   0  0  0  0  0  0  0  0  0  0  0  0
   -2.1350   -1.6424   -1.7402 H   0  0  0  0  0  0  0  0  0  0  0  0
   -1.6906    0.2145   -0.0816 H   0  0  0  0  0  0  0  0  0  0  0  0
    0.3715   -1.7119    1.0956 H   0  0  0  0  0  0  0  0  0  0  0  0
   -0.1034   -0.1637    1.7562 H   0  0  0  0  0  0  0  0  0  0  0  0
   -3.9953   -1.8492    2.8763 H   0  0  0  0  0  0  0  0  0  0  0  0
   -6.3641   -1.0158    2.7936 H   0  0  0  0  0  0  0  0  0  0  0  0
   -7.1241    0.1248    0.6930 H   0  0  0  0  0  0  0  0  0  0  0  0
    2.8133    3.2369    0.5709 H   0  0  0  0  0  0  0  0  0  0  0  0
    3.3230    3.1153   -1.1234 H   0  0  0  0  0  0  0  0  0  0  0  0
    4.9625    2.4715    1.3627 H   0  0  0  0  0  0  0  0  0  0  0  0
    5.5043    3.2696   -0.1532 H   0  0  0  0  0  0  0  0  0  0  0  0
    6.0543    0.7169   -0.0398 H   0  0  0  0  0  0  0  0  0  0  0  0
  1  2  2  0
  2  3  1  0
  3  4  1  0
  4  5  1  0
  5  6  1  0
  6  7  1  0
  7  8  1  0
  7  9  1  0
  9 10  1  0
 10 11  2  0
 11 12  1  0
 12 13  2  0
 13 14  1  0
 14 15  2  0
  2 16  1  0
 16 17  1  0
 17 18  1  0
 18 19  1  0
 19 20  1  0
 20 21  2  0
  8  3  1  0
 15 10  1  0
 20 16  1  0
  4 22  1  0
  4 23  1  0
  5 24  1  0
  5 25  1  0
  6 26  1  0
  6 27  1  0
  7 28  1  0
  8 29  1  0
  8 30  1  0
 11 31  1  0
 12 32  1  0
 13 33  1  0
 17 34  1  0
 17 35  1  0
 18 36  1  0
 18 37  1  0
 19 38  1  0
M  END
>  <Unnamed: 0>  (267) 
1668

>  <ID>  (267) 
TRAIN_1668

>  <Canonical_Smiles>  (267) 
O=C(N1CCCC(C1)Oc2cccnn2)N3CCNC3=O

>  <Inhibition>  (267) 
13.025728

>  <TDC_conf_true_inhibitor>  (267) 
0

>  <TDC_conf_non_inhibitor>  (267) 
1

>  <split>  (267) 
1

$$$$
267
     RDKit          3D

 52 56  0  0  0  0  0  0  0  0999 V2000
   -5.1126   -1.6852   -0.1862 C   0  0  0  0  0  0  0  0  0  0  0  0
   -3.8111   -1.3935   -0.8659 C   0  0  0  0  0  0  0  0  0  0  0  0
   -3.5716   -2.0170   -2.1097 C   0  0  0  0  0  0  0  0  0  0  0  0
   -2.3811   -1.8225   -2.8220 C   0  0  0  0  0  0  0  0  0  0  0  0
   -1.3882   -0.9995   -2.3093 C   0  0  0  0  0  0  0  0  0  0  0  0
   -1.6108   -0.3838   -1.0815 C   0  0  0  0  0  0  0  0  0  0  0  0
   -2.8088   -0.5646   -0.3613 C   0  0  0  0  0  0  0  0  0  0  0  0
   -2.7279    0.1944    0.8271 N   0  0  0  0  0  0  0  0  0  0  0  0
   -3.7295    0.3519    1.8523 C   0  0  0  0  0  0  0  0  0  0  0  0
   -4.5924    1.5409    1.5416 C   0  0  0  0  0  0  0  0  0  0  0  0
   -5.9317    1.5515    1.5770 C   0  0  0  0  0  0  0  0  0  0  0  0
   -1.5089    0.8861    0.9150 C   0  0  0  0  0  0  0  0  0  0  0  0
   -1.1595    1.6341    1.8179 O   0  0  0  0  0  0  0  0  0  0  0  0
   -0.6849    0.5447   -0.3325 C   0  0  0  0  0  0  0  0  0  0  0  0
   -0.3521    1.8254   -1.1045 C   0  0  0  0  0  0  0  0  0  0  0  0
    0.9486    2.4915   -0.6632 C   0  0  0  0  0  0  0  0  0  0  0  0
    1.1190    3.7044   -0.7871 O   0  0  0  0  0  0  0  0  0  0  0  0
    1.9857    1.6902   -0.2496 N   0  0  0  0  0  0  0  0  0  0  0  0
    1.7761    0.3562    0.0079 C   0  0  0  0  0  0  0  0  0  0  0  0
    0.5344   -0.2275    0.0169 C   0  0  0  0  0  0  0  0  0  0  0  0
    0.7579   -1.5113    0.5388 C   0  0  0  0  0  0  0  0  0  0  0  0
    2.0435   -1.7294    0.8245 N   0  0  0  0  0  0  0  0  0  0  0  0
    2.6930   -0.5992    0.4155 N   0  0  0  0  0  0  0  0  0  0  0  0
    4.1107   -0.5188    0.5041 C   0  0  0  0  0  0  0  0  0  0  0  0
    4.7131   -1.1707    1.5979 C   0  0  0  0  0  0  0  0  0  0  0  0
    6.0872   -1.0795    1.8146 C   0  0  0  0  0  0  0  0  0  0  0  0
    6.8774   -0.3508    0.9348 C   0  0  0  0  0  0  0  0  0  0  0  0
    6.2994    0.2545   -0.1816 C   0  0  0  0  0  0  0  0  0  0  0  0
    4.9171    0.1553   -0.4371 C   0  0  0  0  0  0  0  0  0  0  0  0
    4.4382    0.7026   -1.7548 C   0  0  0  0  0  0  0  0  0  0  0  0
   -5.6796   -0.7665   -0.0300 H   0  0  0  0  0  0  0  0  0  0  0  0
   -5.7468   -2.3405   -0.7944 H   0  0  0  0  0  0  0  0  0  0  0  0
   -4.9445   -2.2047    0.7611 H   0  0  0  0  0  0  0  0  0  0  0  0
   -4.3250   -2.6742   -2.5432 H   0  0  0  0  0  0  0  0  0  0  0  0
   -2.2357   -2.3223   -3.7770 H   0  0  0  0  0  0  0  0  0  0  0  0
   -0.4611   -0.8541   -2.8563 H   0  0  0  0  0  0  0  0  0  0  0  0
   -3.2210    0.5483    2.8043 H   0  0  0  0  0  0  0  0  0  0  0  0
   -4.2966   -0.5680    1.9960 H   0  0  0  0  0  0  0  0  0  0  0  0
   -4.0721    2.4673    1.3033 H   0  0  0  0  0  0  0  0  0  0  0  0
   -6.4827    2.4607    1.3546 H   0  0  0  0  0  0  0  0  0  0  0  0
   -6.5071    0.6681    1.8343 H   0  0  0  0  0  0  0  0  0  0  0  0
   -0.2303    1.6230   -2.1767 H   0  0  0  0  0  0  0  0  0  0  0  0
   -1.1616    2.5601   -1.0074 H   0  0  0  0  0  0  0  0  0  0  0  0
    2.8630    2.1420   -0.0157 H   0  0  0  0  0  0  0  0  0  0  0  0
    0.0369   -2.2902    0.7568 H   0  0  0  0  0  0  0  0  0  0  0  0
    4.1091   -1.7278    2.3136 H   0  0  0  0  0  0  0  0  0  0  0  0
    6.5351   -1.5704    2.6747 H   0  0  0  0  0  0  0  0  0  0  0  0
    7.9486   -0.2722    1.1026 H   0  0  0  0  0  0  0  0  0  0  0  0
    6.9476    0.7819   -0.8802 H   0  0  0  0  0  0  0  0  0  0  0  0
    4.2799    1.7825   -1.6909 H   0  0  0  0  0  0  0  0  0  0  0  0
    3.5264    0.2081   -2.1004 H   0  0  0  0  0  0  0  0  0  0  0  0
    5.1870    0.5186   -2.5346 H   0  0  0  0  0  0  0  0  0  0  0  0
  1  2  1  0
  2  3  2  0
  3  4  1  0
  4  5  2  0
  5  6  1  0
  6  7  2  0
  7  8  1  0
  8  9  1  0
  9 10  1  0
 10 11  2  0
  8 12  1  0
 12 13  2  0
 12 14  1  0
 14 15  1  0
 15 16  1  0
 16 17  2  0
 16 18  1  0
 18 19  1  0
 19 20  2  0
 20 21  1  0
 21 22  2  0
 22 23  1  0
 23 24  1  0
 24 25  2  0
 25 26  1  0
 26 27  2  0
 27 28  1  0
 28 29  2  0
 29 30  1  0
  7  2  1  0
 14  6  1  0
 20 14  1  0
 23 19  1  0
 29 24  1  0
  1 31  1  0
  1 32  1  0
  1 33  1  0
  3 34  1  0
  4 35  1  0
  5 36  1  0
  9 37  1  0
  9 38  1  0
 10 39  1  0
 11 40  1  0
 11 41  1  0
 15 42  1  0
 15 43  1  0
 18 44  1  0
 21 45  1  0
 25 46  1  0
 26 47  1  0
 27 48  1  0
 28 49  1  0
 30 50  1  0
 30 51  1  0
 30 52  1  0
M  END
>  <Unnamed: 0>  (268) 
1671

>  <ID>  (268) 
TRAIN_1671

>  <Canonical_Smiles>  (268) 
Cc1cccc2c1N(CC=C)C(=O)C23CC(=O)Nc4c3cnn4c5ccccc5C

>  <Inhibition>  (268) 
23.10512

>  <TDC_conf_true_inhibitor>  (268) 
1

>  <TDC_conf_non_inhibitor>  (268) 
0

>  <split>  (268) 
1

$$$$
