0
     RDKit          3D

 44 46  0  0  0  0  0  0  0  0999 V2000
    5.5420    3.6149    2.1132 F   0  0  0  0  0  0  0  0  0  0  0  0
    5.3140    2.2806    2.0135 C   0  0  0  0  0  0  0  0  0  0  0  0
    5.2174    1.8027    3.2784 F   0  0  0  0  0  0  0  0  0  0  0  0
    4.0969    2.1393    1.4351 F   0  0  0  0  0  0  0  0  0  0  0  0
    6.4214    1.5852    1.2294 C   0  0  0  0  0  0  0  0  0  0  0  0
    7.6386    1.8376    1.7993 F   0  0  0  0  0  0  0  0  0  0  0  0
    6.5055    2.0835   -0.0390 F   0  0  0  0  0  0  0  0  0  0  0  0
    6.2443    0.0711    1.1579 C   0  0  0  0  0  0  0  0  0  0  0  0
    4.9630   -0.3807    0.7187 O   0  0  0  0  0  0  0  0  0  0  0  0
    4.7376   -0.1873   -0.6780 C   0  0  0  0  0  0  0  0  0  0  0  0
    3.4736   -0.9161   -1.0450 C   0  0  0  0  0  0  0  0  0  0  0  0
    2.2388   -0.2571   -0.8709 C   0  0  0  0  0  0  0  0  0  0  0  0
    1.0176   -0.8807   -1.1676 C   0  0  0  0  0  0  0  0  0  0  0  0
   -0.1796   -0.1526   -1.0276 N   0  0  0  0  0  0  0  0  0  0  0  0
   -1.3672   -0.7988   -1.2037 N   0  0  0  0  0  0  0  0  0  0  0  0
   -2.4426   -0.1891   -0.8188 C   0  0  0  0  0  0  0  0  0  0  0  0
   -3.6830   -0.7440   -0.9781 N   0  0  0  0  0  0  0  0  0  0  0  0
   -4.4550    0.1728   -0.4906 C   0  0  0  0  0  0  0  0  0  0  0  0
   -3.8808    1.3045   -0.0026 O   0  0  0  0  0  0  0  0  0  0  0  0
   -2.5370    1.1705   -0.1594 C   0  0  0  0  0  0  0  0  0  0  0  0
   -1.6453    1.9237    0.1606 O   0  0  0  0  0  0  0  0  0  0  0  0
   -5.9232    0.1272   -0.4008 C   0  0  0  0  0  0  0  0  0  0  0  0
   -6.5929   -1.0035   -0.8851 C   0  0  0  0  0  0  0  0  0  0  0  0
   -7.9852   -1.0769   -0.8138 C   0  0  0  0  0  0  0  0  0  0  0  0
   -8.7116   -0.0239   -0.2589 C   0  0  0  0  0  0  0  0  0  0  0  0
   -8.0493    1.1040    0.2251 C   0  0  0  0  0  0  0  0  0  0  0  0
   -6.6564    1.1828    0.1556 C   0  0  0  0  0  0  0  0  0  0  0  0
    1.0490   -2.1807   -1.6811 C   0  0  0  0  0  0  0  0  0  0  0  0
    2.2596   -2.8596   -1.8419 C   0  0  0  0  0  0  0  0  0  0  0  0
    3.4651   -2.2354   -1.5164 C   0  0  0  0  0  0  0  0  0  0  0  0
    4.9191   -3.1457   -1.7234 Cl  0  0  0  0  0  0  0  0  0  0  0  0
    6.3961   -0.3464    2.1598 H   0  0  0  0  0  0  0  0  0  0  0  0
    7.0235   -0.3704    0.5249 H   0  0  0  0  0  0  0  0  0  0  0  0
    4.6173    0.8816   -0.8888 H   0  0  0  0  0  0  0  0  0  0  0  0
    5.5927   -0.5360   -1.2666 H   0  0  0  0  0  0  0  0  0  0  0  0
    2.2353    0.7626   -0.4878 H   0  0  0  0  0  0  0  0  0  0  0  0
   -0.1096    0.6755   -0.4268 H   0  0  0  0  0  0  0  0  0  0  0  0
   -6.0383   -1.8331   -1.3200 H   0  0  0  0  0  0  0  0  0  0  0  0
   -8.5026   -1.9560   -1.1906 H   0  0  0  0  0  0  0  0  0  0  0  0
   -9.7962   -0.0830   -0.2035 H   0  0  0  0  0  0  0  0  0  0  0  0
   -8.6197    1.9229    0.6581 H   0  0  0  0  0  0  0  0  0  0  0  0
   -6.1641    2.0725    0.5401 H   0  0  0  0  0  0  0  0  0  0  0  0
    0.1219   -2.6810   -1.9513 H   0  0  0  0  0  0  0  0  0  0  0  0
    2.2496   -3.8773   -2.2231 H   0  0  0  0  0  0  0  0  0  0  0  0
  1  2  1  0
  2  3  1  0
  2  4  1  0
  2  5  1  0
  5  6  1  0
  5  7  1  0
  5  8  1  0
  8  9  1  0
  9 10  1  0
 10 11  1  0
 11 12  2  0
 12 13  1  0
 13 14  1  0
 14 15  1  0
 15 16  2  0
 16 17  1  0
 17 18  2  0
 18 19  1  0
 19 20  1  0
 20 21  2  0
 18 22  1  0
 22 23  2  0
 23 24  1  0
 24 25  2  0
 25 26  1  0
 26 27  2  0
 13 28  2  0
 28 29  1  0
 29 30  2  0
 30 31  1  0
 30 11  1  0
 20 16  1  0
 27 22  1  0
  8 32  1  0
  8 33  1  0
 10 34  1  0
 10 35  1  0
 12 36  1  0
 14 37  1  0
 23 38  1  0
 24 39  1  0
 25 40  1  0
 26 41  1  0
 27 42  1  0
 28 43  1  0
 29 44  1  0
M  END
>  <Unnamed: 0>  (1) 
10

>  <ID>  (1) 
TRAIN_0010

>  <Canonical_Smiles>  (1) 
FC(F)(F)C(F)(F)COCc1cc(N\N=C/2\N=C(OC2=O)c3ccccc3)ccc1Cl

>  <Inhibition>  (1) 
91.8

>  <TDC_conf_true_inhibitor>  (1) 
1

>  <TDC_conf_non_inhibitor>  (1) 
0

>  <split>  (1) 
1

$$$$
1
     RDKit          3D

 57 60  0  0  0  0  0  0  0  0999 V2000
   -7.6138   -0.2368   -0.5266 C   0  0  0  0  0  0  0  0  0  0  0  0
   -6.7772    0.4438    0.5683 C   0  0  0  0  0  0  0  0  0  0  0  0
   -7.0803   -0.2377    1.9071 C   0  0  0  0  0  0  0  0  0  0  0  0
   -7.1234    1.9362    0.5911 C   0  0  0  0  0  0  0  0  0  0  0  0
   -5.4017    0.2300    0.1619 O   0  0  0  0  0  0  0  0  0  0  0  0
   -4.3661    0.6952    0.9067 C   0  0  0  0  0  0  0  0  0  0  0  0
   -4.4947    1.3027    1.9615 O   0  0  0  0  0  0  0  0  0  0  0  0
   -3.1323    0.4050    0.3326 N   0  0  0  0  0  0  0  0  0  0  0  0
   -3.0079   -0.5406   -0.7743 C   0  0  0  0  0  0  0  0  0  0  0  0
   -1.7964   -0.2386   -1.6493 C   0  0  0  0  0  0  0  0  0  0  0  0
   -0.5283   -0.1145   -0.7986 C   0  0  0  0  0  0  0  0  0  0  0  0
   -0.7184    0.9481    0.2890 C   0  0  0  0  0  0  0  0  0  0  0  0
   -1.9407    0.6301    1.1426 C   0  0  0  0  0  0  0  0  0  0  0  0
    0.6987    0.1217   -1.6428 C   0  0  0  0  0  0  0  0  0  0  0  0
    1.6561   -0.7726   -1.7752 N   0  0  0  0  0  0  0  0  0  0  0  0
    2.6653   -0.2963   -2.6010 C   0  0  0  0  0  0  0  0  0  0  0  0
    3.8605   -1.1563   -2.8898 C   0  0  0  0  0  0  0  0  0  0  0  0
    4.2750   -1.9802   -1.7931 O   0  0  0  0  0  0  0  0  0  0  0  0
    5.0677   -1.4389   -0.8227 C   0  0  0  0  0  0  0  0  0  0  0  0
    5.4070   -0.0939   -0.6819 C   0  0  0  0  0  0  0  0  0  0  0  0
    6.2363    0.3247    0.3696 C   0  0  0  0  0  0  0  0  0  0  0  0
    6.7324   -0.6076    1.2905 C   0  0  0  0  0  0  0  0  0  0  0  0
    6.3845   -1.9576    1.1542 C   0  0  0  0  0  0  0  0  0  0  0  0
    5.5550   -2.3624    0.1048 C   0  0  0  0  0  0  0  0  0  0  0  0
    7.5785   -0.2083    2.3522 N   0  0  0  0  0  0  0  0  0  0  0  0
    8.0468    1.0408    2.6745 C   0  0  0  0  0  0  0  0  0  0  0  0
    8.8202    0.9580    3.7326 N   0  0  0  0  0  0  0  0  0  0  0  0
    8.8315   -0.3666    4.0800 N   0  0  0  0  0  0  0  0  0  0  0  0
    8.0829   -1.0828    3.2540 N   0  0  0  0  0  0  0  0  0  0  0  0
    2.4325    0.9679   -3.1093 C   0  0  0  0  0  0  0  0  0  0  0  0
    0.9441    1.5784   -2.5264 S   0  0  0  0  0  0  0  0  0  0  0  0
   -7.3924    0.1935   -1.5104 H   0  0  0  0  0  0  0  0  0  0  0  0
   -8.6882   -0.1381   -0.3395 H   0  0  0  0  0  0  0  0  0  0  0  0
   -7.3711   -1.3037   -0.5952 H   0  0  0  0  0  0  0  0  0  0  0  0
   -8.1535   -0.2229    2.1269 H   0  0  0  0  0  0  0  0  0  0  0  0
   -6.5699    0.2529    2.7417 H   0  0  0  0  0  0  0  0  0  0  0  0
   -6.7404   -1.2794    1.8989 H   0  0  0  0  0  0  0  0  0  0  0  0
   -8.1975    2.0937    0.7381 H   0  0  0  0  0  0  0  0  0  0  0  0
   -6.6015    2.4657    1.3940 H   0  0  0  0  0  0  0  0  0  0  0  0
   -6.8258    2.4185   -0.3469 H   0  0  0  0  0  0  0  0  0  0  0  0
   -2.9270   -1.5433   -0.3372 H   0  0  0  0  0  0  0  0  0  0  0  0
   -3.9058   -0.5311   -1.4000 H   0  0  0  0  0  0  0  0  0  0  0  0
   -1.6802   -1.0289   -2.4010 H   0  0  0  0  0  0  0  0  0  0  0  0
   -1.9796    0.6949   -2.1973 H   0  0  0  0  0  0  0  0  0  0  0  0
   -0.3753   -1.0789   -0.2914 H   0  0  0  0  0  0  0  0  0  0  0  0
   -0.8551    1.9391   -0.1624 H   0  0  0  0  0  0  0  0  0  0  0  0
    0.1712    1.0096    0.9273 H   0  0  0  0  0  0  0  0  0  0  0  0
   -1.7711   -0.2792    1.7324 H   0  0  0  0  0  0  0  0  0  0  0  0
   -2.1088    1.4481    1.8516 H   0  0  0  0  0  0  0  0  0  0  0  0
    3.5794   -1.8442   -3.6963 H   0  0  0  0  0  0  0  0  0  0  0  0
    4.7033   -0.5709   -3.2782 H   0  0  0  0  0  0  0  0  0  0  0  0
    5.0359    0.6627   -1.3644 H   0  0  0  0  0  0  0  0  0  0  0  0
    6.4668    1.3845    0.4348 H   0  0  0  0  0  0  0  0  0  0  0  0
    6.7447   -2.7123    1.8511 H   0  0  0  0  0  0  0  0  0  0  0  0
    5.2863   -3.4127    0.0082 H   0  0  0  0  0  0  0  0  0  0  0  0
    7.8118    1.9422    2.1328 H   0  0  0  0  0  0  0  0  0  0  0  0
    3.0499    1.5491   -3.7791 H   0  0  0  0  0  0  0  0  0  0  0  0
  1  2  1  0
  2  3  1  0
  2  4  1  0
  2  5  1  0
  5  6  1  0
  6  7  2  0
  6  8  1  0
  8  9  1  0
  9 10  1  0
 10 11  1  0
 11 12  1  0
 12 13  1  0
 11 14  1  0
 14 15  2  0
 15 16  1  0
 16 17  1  0
 17 18  1  0
 18 19  1  0
 19 20  2  0
 20 21  1  0
 21 22  2  0
 22 23  1  0
 23 24  2  0
 22 25  1  0
 25 26  1  0
 26 27  2  0
 27 28  1  0
 28 29  2  0
 16 30  2  0
 30 31  1  0
 13  8  1  0
 31 14  1  0
 24 19  1  0
 29 25  1  0
  1 32  1  0
  1 33  1  0
  1 34  1  0
  3 35  1  0
  3 36  1  0
  3 37  1  0
  4 38  1  0
  4 39  1  0
  4 40  1  0
  9 41  1  0
  9 42  1  0
 10 43  1  0
 10 44  1  0
 11 45  1  0
 12 46  1  0
 12 47  1  0
 13 48  1  0
 13 49  1  0
 17 50  1  0
 17 51  1  0
 20 52  1  0
 21 53  1  0
 23 54  1  0
 24 55  1  0
 26 56  1  0
 30 57  1  0
M  END
>  <Unnamed: 0>  (2) 
18

>  <ID>  (2) 
TRAIN_0018

>  <Canonical_Smiles>  (2) 
CC(C)(C)OC(=O)N1CCC(CC1)c2nc(COc3ccc(cc3)n4cnnn4)cs2

>  <Inhibition>  (2) 
31.2

>  <TDC_conf_true_inhibitor>  (2) 
1

>  <TDC_conf_non_inhibitor>  (2) 
0

>  <split>  (2) 
1

$$$$
2
     RDKit          3D

 54 56  0  0  0  0  0  0  0  0999 V2000
    7.9060   -0.6418    0.1400 C   0  0  0  0  0  0  0  0  0  0  0  0
    7.3508    0.5192    0.9492 C   0  0  0  0  0  0  0  0  0  0  0  0
    6.1440    1.0068    0.3436 O   0  0  0  0  0  0  0  0  0  0  0  0
    4.9836    0.4315    0.7744 C   0  0  0  0  0  0  0  0  0  0  0  0
    4.8991   -0.4635    1.6057 O   0  0  0  0  0  0  0  0  0  0  0  0
    3.7990    1.0502    0.0598 C   0  0  0  0  0  0  0  0  0  0  0  0
    3.3121    0.0773   -1.0209 C   0  0  0  0  0  0  0  0  0  0  0  0
    1.8481    0.3031   -1.3840 C   0  0  0  0  0  0  0  0  0  0  0  0
    0.9818    0.3041   -0.2033 N   0  0  0  0  0  0  0  0  0  0  0  0
    1.6094    0.3656    1.1168 C   0  0  0  0  0  0  0  0  0  0  0  0
    2.7128    1.4187    1.0817 C   0  0  0  0  0  0  0  0  0  0  0  0
   -0.1045   -0.5767   -0.2520 C   0  0  0  0  0  0  0  0  0  0  0  0
   -1.3156    0.0169   -0.2344 N   0  0  0  0  0  0  0  0  0  0  0  0
   -2.4090   -0.7647   -0.2701 C   0  0  0  0  0  0  0  0  0  0  0  0
   -2.3777   -2.1085   -0.3127 N   0  0  0  0  0  0  0  0  0  0  0  0
   -1.1526   -2.6733   -0.3252 C   0  0  0  0  0  0  0  0  0  0  0  0
    0.0338   -1.9668   -0.2910 C   0  0  0  0  0  0  0  0  0  0  0  0
    1.2885   -2.5070   -0.3000 O   0  0  0  0  0  0  0  0  0  0  0  0
    1.3885   -3.9141   -0.1219 C   0  0  0  0  0  0  0  0  0  0  0  0
   -3.7291   -0.0987   -0.2509 C   0  0  0  0  0  0  0  0  0  0  0  0
   -3.8383    1.3086   -0.2566 C   0  0  0  0  0  0  0  0  0  0  0  0
   -5.0805    1.9509   -0.2333 C   0  0  0  0  0  0  0  0  0  0  0  0
   -6.2450    1.1857   -0.1924 C   0  0  0  0  0  0  0  0  0  0  0  0
   -6.1797   -0.2075   -0.2046 C   0  0  0  0  0  0  0  0  0  0  0  0
   -4.9302   -0.8377   -0.2311 C   0  0  0  0  0  0  0  0  0  0  0  0
   -7.8217    2.0021   -0.1552 S   0  0  0  0  0  6  0  0  0  0  0  0
   -7.7024    3.2121   -0.9460 O   0  0  0  0  0  0  0  0  0  0  0  0
   -8.8408    1.0145   -0.4549 O   0  0  0  0  0  0  0  0  0  0  0  0
   -7.9980    2.4651    1.5481 C   0  0  0  0  0  0  0  0  0  0  0  0
    8.0556   -0.3414   -0.9013 H   0  0  0  0  0  0  0  0  0  0  0  0
    7.2059   -1.4846    0.1342 H   0  0  0  0  0  0  0  0  0  0  0  0
    8.8662   -0.9822    0.5493 H   0  0  0  0  0  0  0  0  0  0  0  0
    7.1903    0.2390    1.9992 H   0  0  0  0  0  0  0  0  0  0  0  0
    8.0666    1.3487    0.9438 H   0  0  0  0  0  0  0  0  0  0  0  0
    4.1329    1.9842   -0.4123 H   0  0  0  0  0  0  0  0  0  0  0  0
    3.4471   -0.9597   -0.6914 H   0  0  0  0  0  0  0  0  0  0  0  0
    3.9339    0.1863   -1.9167 H   0  0  0  0  0  0  0  0  0  0  0  0
    1.5394   -0.4351   -2.1369 H   0  0  0  0  0  0  0  0  0  0  0  0
    1.7494    1.2848   -1.8659 H   0  0  0  0  0  0  0  0  0  0  0  0
    0.8664    0.6610    1.8684 H   0  0  0  0  0  0  0  0  0  0  0  0
    2.0203   -0.6048    1.4223 H   0  0  0  0  0  0  0  0  0  0  0  0
    3.1321    1.5569    2.0859 H   0  0  0  0  0  0  0  0  0  0  0  0
    2.2716    2.3823    0.7933 H   0  0  0  0  0  0  0  0  0  0  0  0
   -1.1808   -3.7566   -0.3702 H   0  0  0  0  0  0  0  0  0  0  0  0
    0.9606   -4.4484   -0.9768 H   0  0  0  0  0  0  0  0  0  0  0  0
    2.4511   -4.1717   -0.0663 H   0  0  0  0  0  0  0  0  0  0  0  0
    0.9193   -4.2300    0.8163 H   0  0  0  0  0  0  0  0  0  0  0  0
   -2.9357    1.9200   -0.2865 H   0  0  0  0  0  0  0  0  0  0  0  0
   -5.1219    3.0385   -0.2550 H   0  0  0  0  0  0  0  0  0  0  0  0
   -7.0843   -0.8120   -0.1995 H   0  0  0  0  0  0  0  0  0  0  0  0
   -4.8972   -1.9277   -0.2407 H   0  0  0  0  0  0  0  0  0  0  0  0
   -7.9726    1.5662    2.1661 H   0  0  0  0  0  0  0  0  0  0  0  0
   -8.9594    2.9689    1.6645 H   0  0  0  0  0  0  0  0  0  0  0  0
   -7.1892    3.1450    1.8189 H   0  0  0  0  0  0  0  0  0  0  0  0
  1  2  1  0
  2  3  1  0
  3  4  1  0
  4  5  2  0
  4  6  1  0
  6  7  1  0
  7  8  1  0
  8  9  1  0
  9 10  1  0
 10 11  1  0
  9 12  1  0
 12 13  2  0
 13 14  1  0
 14 15  2  0
 15 16  1  0
 16 17  2  0
 17 18  1  0
 18 19  1  0
 14 20  1  0
 20 21  2  0
 21 22  1  0
 22 23  2  0
 23 24  1  0
 24 25  2  0
 23 26  1  0
 26 27  2  0
 26 28  2  0
 26 29  1  0
 11  6  1  0
 17 12  1  0
 25 20  1  0
  1 30  1  0
  1 31  1  0
  1 32  1  0
  2 33  1  0
  2 34  1  0
  6 35  1  0
  7 36  1  0
  7 37  1  0
  8 38  1  0
  8 39  1  0
 10 40  1  0
 10 41  1  0
 11 42  1  0
 11 43  1  0
 16 44  1  0
 19 45  1  0
 19 46  1  0
 19 47  1  0
 21 48  1  0
 22 49  1  0
 24 50  1  0
 25 51  1  0
 29 52  1  0
 29 53  1  0
 29 54  1  0
M  END
>  <Unnamed: 0>  (3) 
22

>  <ID>  (3) 
TRAIN_0022

>  <Canonical_Smiles>  (3) 
CCOC(=O)C1CCN(CC1)c2nc(ncc2OC)c3ccc(cc3)S(=O)(=O)C

>  <Inhibition>  (3) 
7.98

>  <TDC_conf_true_inhibitor>  (3) 
0

>  <TDC_conf_non_inhibitor>  (3) 
1

>  <split>  (3) 
1

$$$$
3
     RDKit          3D

 36 36  0  0  0  0  0  0  0  0999 V2000
    2.1325    3.4993    0.6641 C   0  0  0  0  0  0  0  0  0  0  0  0
    2.2293    2.0756    0.6780 O   0  0  0  0  0  0  0  0  0  0  0  0
    1.3077    1.4591   -0.1106 C   0  0  0  0  0  0  0  0  0  0  0  0
    0.4696    2.0150   -0.8054 O   0  0  0  0  0  0  0  0  0  0  0  0
    1.5059    0.0017   -0.0176 C   0  0  0  0  0  0  0  0  0  0  0  0
    0.4950   -0.7863    0.4138 C   0  0  0  0  0  0  0  0  0  0  0  0
    0.5850   -2.2936    0.4804 C   0  0  0  0  0  0  0  0  0  0  0  0
   -0.6822   -0.2721    0.9133 N   0  0  0  0  0  0  0  0  0  0  0  0
   -1.6913   -0.1326    0.1071 C   0  0  0  0  0  0  0  0  0  0  0  0
   -1.7284   -0.5071   -1.3669 C   0  0  0  0  0  0  0  0  0  0  0  0
   -3.0340    0.1438   -1.8229 C   0  0  0  0  0  0  0  0  0  0  0  0
   -3.9080    0.1647   -0.5717 C   0  0  0  0  0  0  0  0  0  0  0  0
   -2.9298    0.3444    0.4843 N   0  0  0  0  0  0  0  0  0  0  0  0
   -3.3684    0.3763    1.8595 C   0  0  0  0  0  0  0  0  0  0  0  0
    2.8193   -0.5112   -0.4433 C   0  0  0  0  0  0  0  0  0  0  0  0
    3.3943   -0.1394   -1.4561 O   0  0  0  0  0  0  0  0  0  0  0  0
    3.3129   -1.3981    0.4604 O   0  0  0  0  0  0  0  0  0  0  0  0
    4.6127   -1.8943    0.1383 C   0  0  0  0  0  0  0  0  0  0  0  0
    2.8992    3.8976    1.3344 H   0  0  0  0  0  0  0  0  0  0  0  0
    1.1524    3.8219    1.0296 H   0  0  0  0  0  0  0  0  0  0  0  0
    2.3183    3.8864   -0.3427 H   0  0  0  0  0  0  0  0  0  0  0  0
   -0.3997   -2.7512    0.3334 H   0  0  0  0  0  0  0  0  0  0  0  0
    0.9541   -2.6073    1.4621 H   0  0  0  0  0  0  0  0  0  0  0  0
    1.2337   -2.7071   -0.2978 H   0  0  0  0  0  0  0  0  0  0  0  0
   -0.8710   -0.1266   -1.9249 H   0  0  0  0  0  0  0  0  0  0  0  0
   -1.7792   -1.5966   -1.4571 H   0  0  0  0  0  0  0  0  0  0  0  0
   -3.5029   -0.3889   -2.6550 H   0  0  0  0  0  0  0  0  0  0  0  0
   -2.8333    1.1718   -2.1503 H   0  0  0  0  0  0  0  0  0  0  0  0
   -4.6380    0.9792   -0.6025 H   0  0  0  0  0  0  0  0  0  0  0  0
   -4.4340   -0.7888   -0.4485 H   0  0  0  0  0  0  0  0  0  0  0  0
   -2.6210    0.8581    2.4982 H   0  0  0  0  0  0  0  0  0  0  0  0
   -3.5452   -0.6381    2.2311 H   0  0  0  0  0  0  0  0  0  0  0  0
   -4.2988    0.9456    1.9556 H   0  0  0  0  0  0  0  0  0  0  0  0
    5.3386   -1.0757    0.1064 H   0  0  0  0  0  0  0  0  0  0  0  0
    4.9128   -2.5927    0.9243 H   0  0  0  0  0  0  0  0  0  0  0  0
    4.5919   -2.4329   -0.8143 H   0  0  0  0  0  0  0  0  0  0  0  0
  1  2  1  0
  2  3  1  0
  3  4  2  0
  3  5  1  0
  5  6  2  0
  6  7  1  0
  6  8  1  0
  8  9  2  0
  9 10  1  0
 10 11  1  0
 11 12  1  0
 12 13  1  0
 13 14  1  0
  5 15  1  0
 15 16  2  0
 15 17  1  0
 17 18  1  0
 13  9  1  0
  1 19  1  0
  1 20  1  0
  1 21  1  0
  7 22  1  0
  7 23  1  0
  7 24  1  0
 10 25  1  0
 10 26  1  0
 11 27  1  0
 11 28  1  0
 12 29  1  0
 12 30  1  0
 14 31  1  0
 14 32  1  0
 14 33  1  0
 18 34  1  0
 18 35  1  0
 18 36  1  0
M  END
>  <Unnamed: 0>  (4) 
26

>  <ID>  (4) 
TRAIN_0026

>  <Canonical_Smiles>  (4) 
COC(=O)C(=C(C)\N=C\1/CCCN1C)C(=O)OC

>  <Inhibition>  (4) 
0.0

>  <TDC_conf_true_inhibitor>  (4) 
0

>  <TDC_conf_non_inhibitor>  (4) 
1

>  <split>  (4) 
1

$$$$
4
     RDKit          3D

 46 49  0  0  0  0  0  0  0  0999 V2000
    7.4587    1.4555    1.8357 C   0  0  0  0  0  0  0  0  0  0  0  0
    7.1723    1.1787    0.4706 O   0  0  0  0  0  0  0  0  0  0  0  0
    5.8818    0.8472    0.1650 C   0  0  0  0  0  0  0  0  0  0  0  0
    4.8232    0.7477    1.0655 C   0  0  0  0  0  0  0  0  0  0  0  0
    3.5441    0.3968    0.6131 C   0  0  0  0  0  0  0  0  0  0  0  0
    3.3036    0.1362   -0.7421 C   0  0  0  0  0  0  0  0  0  0  0  0
    4.3718    0.2428   -1.6401 C   0  0  0  0  0  0  0  0  0  0  0  0
    5.6479    0.5944   -1.1875 C   0  0  0  0  0  0  0  0  0  0  0  0
    1.9626   -0.2328   -1.1975 C   0  0  0  0  0  0  0  0  0  0  0  0
    0.7109    0.1476   -0.7322 C   0  0  0  0  0  0  0  0  0  0  0  0
   -0.2845   -0.5045   -1.5154 C   0  0  0  0  0  0  0  0  0  0  0  0
   -1.6910   -0.5407   -1.5574 C   0  0  0  0  0  0  0  0  0  0  0  0
   -2.4677    0.2009   -0.6672 N   0  0  0  0  0  0  0  0  0  0  0  0
   -3.8384   -0.2530   -0.4418 C   0  0  0  0  0  0  0  0  0  0  0  0
   -4.7902    0.3805   -1.4611 C   0  0  0  0  0  0  0  0  0  0  0  0
   -4.2369    0.1185    0.9834 C   0  0  0  0  0  0  0  0  0  0  0  0
   -4.5251   -0.8901    1.9166 C   0  0  0  0  0  0  0  0  0  0  0  0
   -4.8787   -0.5671    3.2284 C   0  0  0  0  0  0  0  0  0  0  0  0
   -4.9440    0.7664    3.6265 C   0  0  0  0  0  0  0  0  0  0  0  0
   -4.6532    1.7790    2.7153 C   0  0  0  0  0  0  0  0  0  0  0  0
   -4.2996    1.4583    1.4035 C   0  0  0  0  0  0  0  0  0  0  0  0
   -2.2701   -1.3183   -2.5052 N   0  0  0  0  0  0  0  0  0  0  0  0
   -1.4831   -2.0135   -3.3507 C   0  0  0  0  0  0  0  0  0  0  0  0
   -0.1413   -2.0574   -3.3903 N   0  0  0  0  0  0  0  0  0  0  0  0
    0.3934   -1.2740   -2.4438 C   0  0  0  0  0  0  0  0  0  0  0  0
    1.7340   -1.1072   -2.2401 N   0  0  0  0  0  0  0  0  0  0  0  0
    8.5215    1.7050    1.9103 H   0  0  0  0  0  0  0  0  0  0  0  0
    6.8880    2.3197    2.1915 H   0  0  0  0  0  0  0  0  0  0  0  0
    7.2783    0.5763    2.4629 H   0  0  0  0  0  0  0  0  0  0  0  0
    4.9537    0.9338    2.1261 H   0  0  0  0  0  0  0  0  0  0  0  0
    2.7385    0.3179    1.3396 H   0  0  0  0  0  0  0  0  0  0  0  0
    4.2289    0.0764   -2.7044 H   0  0  0  0  0  0  0  0  0  0  0  0
    6.4664    0.6777   -1.8986 H   0  0  0  0  0  0  0  0  0  0  0  0
    0.5278    0.8385    0.0804 H   0  0  0  0  0  0  0  0  0  0  0  0
   -1.9559    0.3977    0.1860 H   0  0  0  0  0  0  0  0  0  0  0  0
   -3.9060   -1.3455   -0.5328 H   0  0  0  0  0  0  0  0  0  0  0  0
   -4.7179    1.4739   -1.4675 H   0  0  0  0  0  0  0  0  0  0  0  0
   -5.8304    0.1142   -1.2427 H   0  0  0  0  0  0  0  0  0  0  0  0
   -4.5677    0.0409   -2.4778 H   0  0  0  0  0  0  0  0  0  0  0  0
   -4.4762   -1.9380    1.6275 H   0  0  0  0  0  0  0  0  0  0  0  0
   -5.1029   -1.3576    3.9401 H   0  0  0  0  0  0  0  0  0  0  0  0
   -5.2201    1.0165    4.6475 H   0  0  0  0  0  0  0  0  0  0  0  0
   -4.7004    2.8198    3.0251 H   0  0  0  0  0  0  0  0  0  0  0  0
   -4.0659    2.2611    0.7068 H   0  0  0  0  0  0  0  0  0  0  0  0
   -2.0013   -2.6149   -4.0914 H   0  0  0  0  0  0  0  0  0  0  0  0
    2.4414   -1.5822   -2.7797 H   0  0  0  0  0  0  0  0  0  0  0  0
  1  2  1  0
  2  3  1  0
  3  4  2  0
  4  5  1  0
  5  6  2  0
  6  7  1  0
  7  8  2  0
  6  9  1  0
  9 10  2  0
 10 11  1  0
 11 12  2  0
 12 13  1  0
 13 14  1  0
 14 15  1  0
 14 16  1  0
 16 17  2  0
 17 18  1  0
 18 19  2  0
 19 20  1  0
 20 21  2  0
 12 22  1  0
 22 23  2  0
 23 24  1  0
 24 25  2  0
 25 26  1  0
  8  3  1  0
 26  9  1  0
 25 11  1  0
 21 16  1  0
  1 27  1  0
  1 28  1  0
  1 29  1  0
  4 30  1  0
  5 31  1  0
  7 32  1  0
  8 33  1  0
 10 34  1  0
 13 35  1  0
 14 36  1  0
 15 37  1  0
 15 38  1  0
 15 39  1  0
 17 40  1  0
 18 41  1  0
 19 42  1  0
 20 43  1  0
 21 44  1  0
 23 45  1  0
 26 46  1  0
M  END
>  <Unnamed: 0>  (5) 
27

>  <ID>  (5) 
TRAIN_0027

>  <Canonical_Smiles>  (5) 
COc1ccc(cc1)c2cc3c(NC(C)c4ccccc4)ncnc3[nH]2

>  <Inhibition>  (5) 
36.2

>  <TDC_conf_true_inhibitor>  (5) 
1

>  <TDC_conf_non_inhibitor>  (5) 
0

>  <split>  (5) 
1

$$$$
5
     RDKit          3D

 33 34  0  0  0  0  0  0  0  0999 V2000
    5.0405    0.4673    1.1834 C   0  0  0  0  0  0  0  0  0  0  0  0
    4.5068   -0.3444    0.0182 C   0  0  0  0  0  0  0  0  0  0  0  0
    3.1152   -0.6372    0.2154 O   0  0  0  0  0  0  0  0  0  0  0  0
    2.2368    0.3094   -0.2278 C   0  0  0  0  0  0  0  0  0  0  0  0
    2.5602    1.3707   -0.7442 O   0  0  0  0  0  0  0  0  0  0  0  0
    0.8175   -0.1259    0.0768 C   0  0  0  0  0  0  0  0  0  0  0  0
   -0.2732    0.2051   -0.9377 C   0  0  0  0  0  0  0  0  0  0  0  0
    0.0860    0.5837   -2.2387 C   0  0  0  0  0  0  0  0  0  0  0  0
   -0.9083    0.9028   -3.1306 C   0  0  0  0  0  0  0  0  0  0  0  0
   -0.5416    1.3869   -4.7335 Cl  0  0  0  0  0  0  0  0  0  0  0  0
   -2.2143    0.8625   -2.8453 N   0  0  0  0  0  0  0  0  0  0  0  0
   -2.6029    0.4662   -1.6185 C   0  0  0  0  0  0  0  0  0  0  0  0
   -3.9741    0.4137   -1.3426 C   0  0  0  0  0  0  0  0  0  0  0  0
   -5.2665    0.9156   -2.6564 Br  0  0  0  0  0  0  0  0  0  0  0  0
   -4.4734   -0.0058   -0.1128 C   0  0  0  0  0  0  0  0  0  0  0  0
   -3.5949   -0.4016    0.8810 C   0  0  0  0  0  0  0  0  0  0  0  0
   -2.2148   -0.3656    0.6537 C   0  0  0  0  0  0  0  0  0  0  0  0
   -1.3146   -0.7921    1.6004 O   0  0  0  0  0  0  0  0  0  0  0  0
   -1.7993   -1.2159    2.8690 C   0  0  0  0  0  0  0  0  0  0  0  0
   -1.6752    0.0934   -0.6015 C   0  0  0  0  0  0  0  0  0  0  0  0
    4.8657   -0.0566    2.1289 H   0  0  0  0  0  0  0  0  0  0  0  0
    6.1136    0.6463    1.0721 H   0  0  0  0  0  0  0  0  0  0  0  0
    4.5308    1.4332    1.2559 H   0  0  0  0  0  0  0  0  0  0  0  0
    5.0311   -1.3043   -0.0323 H   0  0  0  0  0  0  0  0  0  0  0  0
    4.6755    0.1648   -0.9375 H   0  0  0  0  0  0  0  0  0  0  0  0
    0.5967    0.3710    1.0278 H   0  0  0  0  0  0  0  0  0  0  0  0
    0.8147   -1.2138    0.2163 H   0  0  0  0  0  0  0  0  0  0  0  0
    1.1176    0.6465   -2.5668 H   0  0  0  0  0  0  0  0  0  0  0  0
   -5.5444   -0.0372    0.0716 H   0  0  0  0  0  0  0  0  0  0  0  0
   -4.0208   -0.7402    1.8198 H   0  0  0  0  0  0  0  0  0  0  0  0
   -0.9338   -1.4840    3.4826 H   0  0  0  0  0  0  0  0  0  0  0  0
   -2.3302   -0.4063    3.3802 H   0  0  0  0  0  0  0  0  0  0  0  0
   -2.4265   -2.1080    2.7729 H   0  0  0  0  0  0  0  0  0  0  0  0
  1  2  1  0
  2  3  1  0
  3  4  1  0
  4  5  2  0
  4  6  1  0
  6  7  1  0
  7  8  2  0
  8  9  1  0
  9 10  1  0
  9 11  2  0
 11 12  1  0
 12 13  2  0
 13 14  1  0
 13 15  1  0
 15 16  2  0
 16 17  1  0
 17 18  1  0
 18 19  1  0
 17 20  2  0
 20  7  1  0
 20 12  1  0
  1 21  1  0
  1 22  1  0
  1 23  1  0
  2 24  1  0
  2 25  1  0
  6 26  1  0
  6 27  1  0
  8 28  1  0
 15 29  1  0
 16 30  1  0
 19 31  1  0
 19 32  1  0
 19 33  1  0
M  END
>  <Unnamed: 0>  (6) 
35

>  <ID>  (6) 
TRAIN_0035

>  <Canonical_Smiles>  (6) 
CCOC(=O)Cc1cc(Cl)nc2c(Br)ccc(OC)c12

>  <Inhibition>  (6) 
4.21

>  <TDC_conf_true_inhibitor>  (6) 
0

>  <TDC_conf_non_inhibitor>  (6) 
1

>  <split>  (6) 
1

$$$$
6
     RDKit          3D

 27 28  0  0  0  0  0  0  0  0999 V2000
    0.4440    2.5916   -1.0455 C   0  0  0  0  0  0  0  0  0  0  0  0
   -0.1889    1.3007   -0.6112 C   0  0  0  0  0  0  0  0  0  0  0  0
   -1.5619    1.2863   -0.3229 C   0  0  0  0  0  0  0  0  0  0  0  0
   -2.2361    0.1399    0.0729 C   0  0  0  0  0  0  0  0  0  0  0  0
   -3.5536    0.2448    0.3137 N   0  0  0  0  0  0  0  0  0  0  0  0
   -4.2286   -0.8610    0.6884 C   0  0  0  0  0  0  0  0  0  0  0  0
   -3.6414   -2.0981    0.8350 C   0  0  0  0  0  0  0  0  0  0  0  0
   -2.2780   -2.2024    0.5831 C   0  0  0  0  0  0  0  0  0  0  0  0
   -1.5224   -1.0717    0.1909 C   0  0  0  0  0  0  0  0  0  0  0  0
   -0.1273   -1.0705   -0.0856 C   0  0  0  0  0  0  0  0  0  0  0  0
    0.8813   -2.6962   -0.0163 Br  0  0  0  0  0  0  0  0  0  0  0  0
    0.5334    0.1175   -0.4442 C   0  0  0  0  0  0  0  0  0  0  0  0
    1.8831    0.1022   -0.7008 O   0  0  0  0  0  0  0  0  0  0  0  0
    2.9104    0.5090    0.5176 S   0  0  0  0  0  6  0  0  0  0  0  0
    2.4439   -0.0930    1.7573 O   0  0  0  0  0  0  0  0  0  0  0  0
    3.1324    1.9457    0.4514 O   0  0  0  0  0  0  0  0  0  0  0  0
    4.3795   -0.3805   -0.1117 C   0  0  0  0  0  0  0  0  0  0  0  0
    4.7323    0.0270   -1.3665 F   0  0  0  0  0  0  0  0  0  0  0  0
    5.4782   -0.1949    0.6758 F   0  0  0  0  0  0  0  0  0  0  0  0
    4.1851   -1.7284   -0.1905 F   0  0  0  0  0  0  0  0  0  0  0  0
   -0.2673    3.1994   -1.6156 H   0  0  0  0  0  0  0  0  0  0  0  0
    0.7671    3.1648   -0.1716 H   0  0  0  0  0  0  0  0  0  0  0  0
    1.3014    2.4154   -1.7024 H   0  0  0  0  0  0  0  0  0  0  0  0
   -2.1393    2.2061   -0.4165 H   0  0  0  0  0  0  0  0  0  0  0  0
   -5.2894   -0.7165    0.8723 H   0  0  0  0  0  0  0  0  0  0  0  0
   -4.2245   -2.9598    1.1392 H   0  0  0  0  0  0  0  0  0  0  0  0
   -1.8135   -3.1774    0.7036 H   0  0  0  0  0  0  0  0  0  0  0  0
  1  2  1  0
  2  3  2  0
  3  4  1  0
  4  5  2  0
  5  6  1  0
  6  7  2  0
  7  8  1  0
  8  9  2  0
  9 10  1  0
 10 11  1  0
 10 12  2  0
 12 13  1  0
 13 14  1  0
 14 15  2  0
 14 16  2  0
 14 17  1  0
 17 18  1  0
 17 19  1  0
 17 20  1  0
 12  2  1  0
  9  4  1  0
  1 21  1  0
  1 22  1  0
  1 23  1  0
  3 24  1  0
  6 25  1  0
  7 26  1  0
  8 27  1  0
M  END
>  <Unnamed: 0>  (7) 
88

>  <ID>  (7) 
TRAIN_0088

>  <Canonical_Smiles>  (7) 
Cc1cc2ncccc2c(Br)c1OS(=O)(=O)C(F)(F)F

>  <Inhibition>  (7) 
2.83

>  <TDC_conf_true_inhibitor>  (7) 
0

>  <TDC_conf_non_inhibitor>  (7) 
1

>  <split>  (7) 
1

$$$$
7
     RDKit          3D

 34 35  0  0  0  0  0  0  0  0999 V2000
   -4.6570   -0.6071   -0.5115 C   0  0  0  0  0  0  0  0  0  0  0  0
   -3.8258   -0.3073    0.5921 O   0  0  0  0  0  0  0  0  0  0  0  0
   -2.3889    0.3622    0.2765 P   0  0  0  0  0  5  0  0  0  0  0  0
   -2.4493    1.4327   -0.7709 O   0  0  0  0  0  0  0  0  0  0  0  0
   -1.3172   -1.0324   -0.0922 C   0  0  0  0  0  0  0  0  0  0  0  0
    0.1583   -0.7295   -0.2362 C   0  0  0  0  0  0  0  0  0  0  0  0
    0.7002   -0.3522   -1.4656 C   0  0  0  0  0  0  0  0  0  0  0  0
   -0.1114   -0.2852   -2.7285 C   0  0  0  0  0  0  0  0  0  0  0  0
    2.0093   -0.0447   -1.6234 N   0  0  0  0  0  0  0  0  0  0  0  0
    2.8378   -0.0756   -0.5717 C   0  0  0  0  0  0  0  0  0  0  0  0
    4.1702    0.2572   -0.7810 C   0  0  0  0  0  0  0  0  0  0  0  0
    5.1065    0.2518    0.2540 C   0  0  0  0  0  0  0  0  0  0  0  0
    4.7062   -0.0949    1.5346 C   0  0  0  0  0  0  0  0  0  0  0  0
    3.3736   -0.4330    1.7668 C   0  0  0  0  0  0  0  0  0  0  0  0
    2.4140   -0.4301    0.7181 C   0  0  0  0  0  0  0  0  0  0  0  0
    1.0416   -0.7597    0.8599 C   0  0  0  0  0  0  0  0  0  0  0  0
    0.4454   -1.2360    2.4280 Cl  0  0  0  0  0  0  0  0  0  0  0  0
   -1.9284    0.8844    1.7297 O   0  0  0  0  0  0  0  0  0  0  0  0
   -2.5544    2.0533    2.2179 C   0  0  0  0  0  0  0  0  0  0  0  0
   -4.1225   -1.2266   -1.2363 H   0  0  0  0  0  0  0  0  0  0  0  0
   -4.9918    0.3181   -0.9878 H   0  0  0  0  0  0  0  0  0  0  0  0
   -5.5310   -1.1565   -0.1531 H   0  0  0  0  0  0  0  0  0  0  0  0
   -1.6819   -1.5032   -1.0121 H   0  0  0  0  0  0  0  0  0  0  0  0
   -1.4743   -1.8065    0.6667 H   0  0  0  0  0  0  0  0  0  0  0  0
    0.5004    0.0729   -3.5638 H   0  0  0  0  0  0  0  0  0  0  0  0
   -0.4837   -1.2790   -2.9950 H   0  0  0  0  0  0  0  0  0  0  0  0
   -0.9509    0.4045   -2.6201 H   0  0  0  0  0  0  0  0  0  0  0  0
    4.4889    0.5313   -1.7846 H   0  0  0  0  0  0  0  0  0  0  0  0
    6.1405    0.5191    0.0535 H   0  0  0  0  0  0  0  0  0  0  0  0
    5.4232   -0.1027    2.3515 H   0  0  0  0  0  0  0  0  0  0  0  0
    3.0869   -0.6990    2.7821 H   0  0  0  0  0  0  0  0  0  0  0  0
   -2.2149    2.2317    3.2412 H   0  0  0  0  0  0  0  0  0  0  0  0
   -3.6409    1.9308    2.2217 H   0  0  0  0  0  0  0  0  0  0  0  0
   -2.2786    2.9113    1.5992 H   0  0  0  0  0  0  0  0  0  0  0  0
  1  2  1  0
  2  3  1  0
  3  4  2  0
  3  5  1  0
  5  6  1  0
  6  7  2  0
  7  8  1  0
  7  9  1  0
  9 10  2  0
 10 11  1  0
 11 12  2  0
 12 13  1  0
 13 14  2  0
 14 15  1  0
 15 16  2  0
 16 17  1  0
  3 18  1  0
 18 19  1  0
 16  6  1  0
 15 10  1  0
  1 20  1  0
  1 21  1  0
  1 22  1  0
  5 23  1  0
  5 24  1  0
  8 25  1  0
  8 26  1  0
  8 27  1  0
 11 28  1  0
 12 29  1  0
 13 30  1  0
 14 31  1  0
 19 32  1  0
 19 33  1  0
 19 34  1  0
M  END
>  <Unnamed: 0>  (8) 
364

>  <ID>  (8) 
TRAIN_0364

>  <Canonical_Smiles>  (8) 
COP(=O)(Cc1c(C)nc2ccccc2c1Cl)OC

>  <Inhibition>  (8) 
21.6

>  <TDC_conf_true_inhibitor>  (8) 
1

>  <TDC_conf_non_inhibitor>  (8) 
0

>  <split>  (8) 
1

$$$$
8
     RDKit          3D

 35 36  0  0  0  0  0  0  0  0999 V2000
   -5.5112    0.9498    0.3407 C   0  0  0  0  0  0  0  0  0  0  0  0
   -4.0517    0.6059    0.3095 C   0  0  0  0  0  0  0  0  0  0  0  0
   -3.6224   -0.6364   -0.1573 C   0  0  0  0  0  0  0  0  0  0  0  0
   -2.2599   -0.9703   -0.1579 C   0  0  0  0  0  0  0  0  0  0  0  0
   -1.8474   -2.3207   -0.6817 C   0  0  0  0  0  0  0  0  0  0  0  0
   -1.3099   -0.0346    0.3344 C   0  0  0  0  0  0  0  0  0  0  0  0
    0.0783   -0.2775    0.3770 C   0  0  0  0  0  0  0  0  0  0  0  0
    0.9720    0.6782    0.8802 C   0  0  0  0  0  0  0  0  0  0  0  0
    2.4469    0.3881    0.8977 C   0  0  0  0  0  0  0  0  0  0  0  0
    3.0536    0.7036   -0.3956 N   0  0  0  0  0  0  0  0  0  0  0  0
    4.4962    0.4264   -0.4109 C   0  0  0  0  0  0  0  0  0  0  0  0
    4.8158   -1.0658   -0.5795 C   0  0  0  0  0  0  0  0  0  0  0  0
    4.0924   -1.6059   -1.6860 O   0  0  0  0  0  0  0  0  0  0  0  0
    0.4157    1.8717    1.3116 C   0  0  0  0  0  0  0  0  0  0  0  0
    1.3494    3.1731    1.9426 Cl  0  0  0  0  0  0  0  0  0  0  0  0
   -0.9067    2.1481    1.2996 N   0  0  0  0  0  0  0  0  0  0  0  0
   -1.7450    1.2178    0.8195 C   0  0  0  0  0  0  0  0  0  0  0  0
   -3.1013    1.5079    0.8024 C   0  0  0  0  0  0  0  0  0  0  0  0
   -6.0479    0.4509   -0.4731 H   0  0  0  0  0  0  0  0  0  0  0  0
   -5.6614    2.0273    0.2151 H   0  0  0  0  0  0  0  0  0  0  0  0
   -5.9482    0.6400    1.2949 H   0  0  0  0  0  0  0  0  0  0  0  0
   -4.3567   -1.3511   -0.5258 H   0  0  0  0  0  0  0  0  0  0  0  0
   -2.7111   -2.9041   -1.0184 H   0  0  0  0  0  0  0  0  0  0  0  0
   -1.3491   -2.8973    0.1042 H   0  0  0  0  0  0  0  0  0  0  0  0
   -1.1755   -2.2072   -1.5385 H   0  0  0  0  0  0  0  0  0  0  0  0
    0.4786   -1.2215    0.0131 H   0  0  0  0  0  0  0  0  0  0  0  0
    2.9394    0.9455    1.7022 H   0  0  0  0  0  0  0  0  0  0  0  0
    2.5861   -0.6721    1.1441 H   0  0  0  0  0  0  0  0  0  0  0  0
    2.6183    0.1105   -1.1071 H   0  0  0  0  0  0  0  0  0  0  0  0
    4.9033    0.9586   -1.2787 H   0  0  0  0  0  0  0  0  0  0  0  0
    4.9969    0.8361    0.4734 H   0  0  0  0  0  0  0  0  0  0  0  0
    5.8855   -1.2124   -0.7590 H   0  0  0  0  0  0  0  0  0  0  0  0
    4.5405   -1.6351    0.3131 H   0  0  0  0  0  0  0  0  0  0  0  0
    4.3603   -1.1023   -2.4752 H   0  0  0  0  0  0  0  0  0  0  0  0
   -3.4238    2.4746    1.1855 H   0  0  0  0  0  0  0  0  0  0  0  0
  1  2  1  0
  2  3  2  0
  3  4  1  0
  4  5  1  0
  4  6  2  0
  6  7  1  0
  7  8  2  0
  8  9  1  0
  9 10  1  0
 10 11  1  0
 11 12  1  0
 12 13  1  0
  8 14  1  0
 14 15  1  0
 14 16  2  0
 16 17  1  0
 17 18  2  0
 18  2  1  0
 17  6  1  0
  1 19  1  0
  1 20  1  0
  1 21  1  0
  3 22  1  0
  5 23  1  0
  5 24  1  0
  5 25  1  0
  7 26  1  0
  9 27  1  0
  9 28  1  0
 10 29  1  0
 11 30  1  0
 11 31  1  0
 12 32  1  0
 12 33  1  0
 13 34  1  0
 18 35  1  0
M  END
>  <Unnamed: 0>  (9) 
789

>  <ID>  (9) 
TRAIN_0789

>  <Canonical_Smiles>  (9) 
Cc1cc(C)c2cc(CNCCO)c(Cl)nc2c1

>  <Inhibition>  (9) 
40.156518

>  <TDC_conf_true_inhibitor>  (9) 
1

>  <TDC_conf_non_inhibitor>  (9) 
0

>  <split>  (9) 
1

$$$$
9
     RDKit          3D

 27 28  0  0  0  0  0  0  0  0999 V2000
    1.3352   -1.8020   -1.8949 C   0  0  0  0  0  0  0  0  0  0  0  0
    0.4265   -1.0409   -0.9715 C   0  0  0  0  0  0  0  0  0  0  0  0
   -0.8733   -1.0239   -1.3477 N   0  0  0  0  0  0  0  0  0  0  0  0
   -1.8025   -0.3748   -0.6153 C   0  0  0  0  0  0  0  0  0  0  0  0
   -3.1491   -0.3591   -1.0148 C   0  0  0  0  0  0  0  0  0  0  0  0
   -3.6536   -1.1768   -2.4615 Cl  0  0  0  0  0  0  0  0  0  0  0  0
   -4.1414    0.3027   -0.2852 C   0  0  0  0  0  0  0  0  0  0  0  0
   -3.8018    0.9732    0.8770 C   0  0  0  0  0  0  0  0  0  0  0  0
   -2.4741    0.9739    1.2971 C   0  0  0  0  0  0  0  0  0  0  0  0
   -1.4539    0.3044    0.5657 C   0  0  0  0  0  0  0  0  0  0  0  0
   -0.0849    0.2702    0.9463 C   0  0  0  0  0  0  0  0  0  0  0  0
    0.4099    1.0949    2.4045 Cl  0  0  0  0  0  0  0  0  0  0  0  0
    0.8823   -0.4120    0.1848 C   0  0  0  0  0  0  0  0  0  0  0  0
    2.3464   -0.4374    0.5656 C   0  0  0  0  0  0  0  0  0  0  0  0
    3.1023    0.7525    0.0401 C   0  0  0  0  0  0  0  0  0  0  0  0
    3.7582    1.6304    0.8105 C   0  0  0  0  0  0  0  0  0  0  0  0
    0.7861   -2.1569   -2.7739 H   0  0  0  0  0  0  0  0  0  0  0  0
    2.1489   -1.1642   -2.2523 H   0  0  0  0  0  0  0  0  0  0  0  0
    1.7484   -2.6786   -1.3868 H   0  0  0  0  0  0  0  0  0  0  0  0
   -5.1739    0.2941   -0.6247 H   0  0  0  0  0  0  0  0  0  0  0  0
   -4.5612    1.4935    1.4555 H   0  0  0  0  0  0  0  0  0  0  0  0
   -2.2390    1.5106    2.2148 H   0  0  0  0  0  0  0  0  0  0  0  0
    2.8254   -1.3447    0.1797 H   0  0  0  0  0  0  0  0  0  0  0  0
    2.4546   -0.5321    1.6529 H   0  0  0  0  0  0  0  0  0  0  0  0
    3.1191    0.8930   -1.0389 H   0  0  0  0  0  0  0  0  0  0  0  0
    3.7770    1.5405    1.8926 H   0  0  0  0  0  0  0  0  0  0  0  0
    4.2883    2.4694    0.3697 H   0  0  0  0  0  0  0  0  0  0  0  0
  1  2  1  0
  2  3  2  0
  3  4  1  0
  4  5  2  0
  5  6  1  0
  5  7  1  0
  7  8  2  0
  8  9  1  0
  9 10  2  0
 10 11  1  0
 11 12  1  0
 11 13  2  0
 13 14  1  0
 14 15  1  0
 15 16  2  0
 13  2  1  0
 10  4  1  0
  1 17  1  0
  1 18  1  0
  1 19  1  0
  7 20  1  0
  8 21  1  0
  9 22  1  0
 14 23  1  0
 14 24  1  0
 15 25  1  0
 16 26  1  0
 16 27  1  0
M  END
>  <Unnamed: 0>  (10) 
829

>  <ID>  (10) 
TRAIN_0829

>  <Canonical_Smiles>  (10) 
Cc1nc2c(Cl)cccc2c(Cl)c1CC=C

>  <Inhibition>  (10) 
39.510662

>  <TDC_conf_true_inhibitor>  (10) 
1

>  <TDC_conf_non_inhibitor>  (10) 
0

>  <split>  (10) 
1

$$$$
10
     RDKit          3D

 63 66  0  0  0  0  0  0  0  0999 V2000
   -6.0727    1.4932   -2.5965 C   0  0  0  0  0  0  0  0  0  0  0  0
   -5.8775    1.0410   -1.1594 C   0  0  0  0  0  0  0  0  0  0  0  0
   -4.4884    1.1815   -0.8368 O   0  0  0  0  0  0  0  0  0  0  0  0
   -4.2067    0.9984    0.4731 C   0  0  0  0  0  0  0  0  0  0  0  0
   -4.9809    0.7644    1.3843 O   0  0  0  0  0  0  0  0  0  0  0  0
   -2.7538    1.1318    0.6443 C   0  0  0  0  0  0  0  0  0  0  0  0
   -2.2187    2.4033    0.9113 C   0  0  0  0  0  0  0  0  0  0  0  0
   -3.0865    3.6261    1.0019 C   0  0  0  0  0  0  0  0  0  0  0  0
   -0.8930    2.5977    1.0995 N   0  0  0  0  0  0  0  0  0  0  0  0
   -0.1293    1.4896    1.0240 C   0  0  0  0  0  0  0  0  0  0  0  0
    1.3318    1.5025    1.2049 C   0  0  0  0  0  0  0  0  0  0  0  0
    2.0104    2.4735    1.4821 O   0  0  0  0  0  0  0  0  0  0  0  0
    1.7680    0.1991    0.9962 N   0  0  0  0  0  0  0  0  0  0  0  0
    3.1740   -0.1765    1.1172 C   0  0  0  0  0  0  0  0  0  0  0  0
    3.9544   -0.2074   -0.2153 C   0  0  0  0  0  0  0  0  0  0  0  0
    4.1297    1.1792   -0.8660 C   0  0  0  0  0  0  0  0  0  0  0  0
    5.4162    1.8625   -0.4205 C   0  0  0  0  0  0  0  0  0  0  0  0
    6.6527    1.0585   -0.8263 C   0  0  0  0  0  0  0  0  0  0  0  0
    6.3831   -0.4404   -0.9592 C   0  0  0  0  0  0  0  0  0  0  0  0
    5.3122   -0.9072    0.0188 C   0  0  0  0  0  0  0  0  0  0  0  0
    0.6447   -0.7502    0.8166 C   0  0  0  0  0  0  0  0  0  0  0  0
    0.8119   -1.5644   -0.4678 C   0  0  0  0  0  0  0  0  0  0  0  0
    0.5441   -1.6830    2.0354 C   0  0  0  0  0  0  0  0  0  0  0  0
   -0.5530    0.1875    0.7723 C   0  0  0  0  0  0  0  0  0  0  0  0
   -1.9212   -0.0148    0.5676 C   0  0  0  0  0  0  0  0  0  0  0  0
   -2.5044   -1.3336    0.2876 C   0  0  0  0  0  0  0  0  0  0  0  0
   -2.9744   -2.1475    1.3300 C   0  0  0  0  0  0  0  0  0  0  0  0
   -3.5507   -3.3923    1.0614 C   0  0  0  0  0  0  0  0  0  0  0  0
   -3.6788   -3.8268   -0.2559 C   0  0  0  0  0  0  0  0  0  0  0  0
   -4.3880   -5.3601   -0.5898 Cl  0  0  0  0  0  0  0  0  0  0  0  0
   -3.2418   -3.0242   -1.3061 C   0  0  0  0  0  0  0  0  0  0  0  0
   -2.6625   -1.7806   -1.0349 C   0  0  0  0  0  0  0  0  0  0  0  0
   -5.8059    2.5509   -2.7047 H   0  0  0  0  0  0  0  0  0  0  0  0
   -7.1111    1.3583   -2.9118 H   0  0  0  0  0  0  0  0  0  0  0  0
   -5.4199    0.9257   -3.2722 H   0  0  0  0  0  0  0  0  0  0  0  0
   -6.4925    1.6581   -0.4904 H   0  0  0  0  0  0  0  0  0  0  0  0
   -6.1635   -0.0133   -1.0581 H   0  0  0  0  0  0  0  0  0  0  0  0
   -3.8187    3.5202    1.8099 H   0  0  0  0  0  0  0  0  0  0  0  0
   -2.4816    4.5160    1.2118 H   0  0  0  0  0  0  0  0  0  0  0  0
   -3.6087    3.7938    0.0532 H   0  0  0  0  0  0  0  0  0  0  0  0
    3.2221   -1.1550    1.6046 H   0  0  0  0  0  0  0  0  0  0  0  0
    3.6586    0.5360    1.7968 H   0  0  0  0  0  0  0  0  0  0  0  0
    3.3919   -0.8108   -0.9353 H   0  0  0  0  0  0  0  0  0  0  0  0
    3.2710    1.8298   -0.6799 H   0  0  0  0  0  0  0  0  0  0  0  0
    4.1672    1.0509   -1.9565 H   0  0  0  0  0  0  0  0  0  0  0  0
    5.4019    1.9906    0.6682 H   0  0  0  0  0  0  0  0  0  0  0  0
    5.4781    2.8670   -0.8510 H   0  0  0  0  0  0  0  0  0  0  0  0
    7.0406    1.4334   -1.7807 H   0  0  0  0  0  0  0  0  0  0  0  0
    7.4441    1.2326   -0.0874 H   0  0  0  0  0  0  0  0  0  0  0  0
    7.3150   -0.9959   -0.8003 H   0  0  0  0  0  0  0  0  0  0  0  0
    6.0578   -0.6663   -1.9828 H   0  0  0  0  0  0  0  0  0  0  0  0
    5.6681   -0.7272    1.0402 H   0  0  0  0  0  0  0  0  0  0  0  0
    5.1766   -1.9907   -0.0721 H   0  0  0  0  0  0  0  0  0  0  0  0
    1.7148   -2.1834   -0.4270 H   0  0  0  0  0  0  0  0  0  0  0  0
    0.8877   -0.9164   -1.3484 H   0  0  0  0  0  0  0  0  0  0  0  0
   -0.0176   -2.2543   -0.6301 H   0  0  0  0  0  0  0  0  0  0  0  0
    1.4348   -2.3127    2.1396 H   0  0  0  0  0  0  0  0  0  0  0  0
    0.4366   -1.1142    2.9648 H   0  0  0  0  0  0  0  0  0  0  0  0
   -0.3056   -2.3645    1.9616 H   0  0  0  0  0  0  0  0  0  0  0  0
   -2.9031   -1.8122    2.3636 H   0  0  0  0  0  0  0  0  0  0  0  0
   -3.9041   -4.0111    1.8821 H   0  0  0  0  0  0  0  0  0  0  0  0
   -3.3520   -3.3561   -2.3353 H   0  0  0  0  0  0  0  0  0  0  0  0
   -2.3333   -1.1600   -1.8665 H   0  0  0  0  0  0  0  0  0  0  0  0
  1  2  1  0
  2  3  1  0
  3  4  1  0
  4  5  2  0
  4  6  1  0
  6  7  2  0
  7  8  1  0
  7  9  1  0
  9 10  2  0
 10 11  1  0
 11 12  2  0
 11 13  1  0
 13 14  1  0
 14 15  1  0
 15 16  1  0
 16 17  1  0
 17 18  1  0
 18 19  1  0
 19 20  1  0
 13 21  1  0
 21 22  1  0
 21 23  1  0
 21 24  1  0
 24 25  2  0
 25 26  1  0
 26 27  2  0
 27 28  1  0
 28 29  2  0
 29 30  1  0
 29 31  1  0
 31 32  2  0
 25  6  1  0
 24 10  1  0
 20 15  1  0
 32 26  1  0
  1 33  1  0
  1 34  1  0
  1 35  1  0
  2 36  1  0
  2 37  1  0
  8 38  1  0
  8 39  1  0
  8 40  1  0
 14 41  1  0
 14 42  1  0
 15 43  1  0
 16 44  1  0
 16 45  1  0
 17 46  1  0
 17 47  1  0
 18 48  1  0
 18 49  1  0
 19 50  1  0
 19 51  1  0
 20 52  1  0
 20 53  1  0
 22 54  1  0
 22 55  1  0
 22 56  1  0
 23 57  1  0
 23 58  1  0
 23 59  1  0
 27 60  1  0
 28 61  1  0
 31 62  1  0
 32 63  1  0
M  END
>  <Unnamed: 0>  (11) 
37

>  <ID>  (11) 
TRAIN_0037

>  <Canonical_Smiles>  (11) 
CCOC(=O)c1c(C)nc2C(=O)N(CC3CCCCC3)C(C)(C)c2c1c4ccc(Cl)cc4

>  <Inhibition>  (11) 
60.9

>  <TDC_conf_true_inhibitor>  (11) 
1

>  <TDC_conf_non_inhibitor>  (11) 
0

>  <split>  (11) 
1

$$$$
11
     RDKit          3D

 29 30  0  0  0  0  0  0  0  0999 V2000
   -0.9252    2.9092   -0.2393 C   0  0  0  0  0  0  0  0  0  0  0  0
   -0.0120    1.9426    0.2846 O   0  0  0  0  0  0  0  0  0  0  0  0
   -0.6523    0.8348    0.7783 C   0  0  0  0  0  0  0  0  0  0  0  0
   -1.5035    1.0087    1.8818 C   0  0  0  0  0  0  0  0  0  0  0  0
   -2.1597   -0.0778    2.4490 C   0  0  0  0  0  0  0  0  0  0  0  0
   -1.9550   -1.3475    1.9221 C   0  0  0  0  0  0  0  0  0  0  0  0
   -2.8781   -2.8027    2.7245 Br  0  0  0  0  0  0  0  0  0  0  0  0
   -1.0822   -1.5351    0.8350 C   0  0  0  0  0  0  0  0  0  0  0  0
   -0.8961   -2.8339    0.3311 N   0  0  0  0  0  0  0  0  0  0  0  0
   -0.0865   -3.1418   -0.7156 C   0  0  0  0  0  0  0  0  0  0  0  0
    0.0478   -4.2846   -1.1359 O   0  0  0  0  0  0  0  0  0  0  0  0
    0.6405   -2.0158   -1.3277 C   0  0  0  0  0  0  0  0  0  0  0  0
    0.5279   -0.7458   -0.8941 C   0  0  0  0  0  0  0  0  0  0  0  0
    1.3317    0.3202   -1.6025 C   0  0  0  0  0  0  0  0  0  0  0  0
    2.6017    0.7206   -0.8518 C   0  0  0  0  0  0  0  0  0  0  0  0
    3.3114    1.6909   -1.6173 O   0  0  0  0  0  0  0  0  0  0  0  0
   -0.3954   -0.4463    0.2435 C   0  0  0  0  0  0  0  0  0  0  0  0
   -0.3602    3.5801   -0.8935 H   0  0  0  0  0  0  0  0  0  0  0  0
   -1.7154    2.4403   -0.8368 H   0  0  0  0  0  0  0  0  0  0  0  0
   -1.3571    3.5112    0.5661 H   0  0  0  0  0  0  0  0  0  0  0  0
   -1.6455    1.9953    2.3159 H   0  0  0  0  0  0  0  0  0  0  0  0
   -2.8183    0.0764    3.2998 H   0  0  0  0  0  0  0  0  0  0  0  0
   -1.3931   -3.6083    0.7541 H   0  0  0  0  0  0  0  0  0  0  0  0
    1.2860   -2.2935   -2.1540 H   0  0  0  0  0  0  0  0  0  0  0  0
    1.6390   -0.0424   -2.5948 H   0  0  0  0  0  0  0  0  0  0  0  0
    0.7198    1.1937   -1.8494 H   0  0  0  0  0  0  0  0  0  0  0  0
    3.2571   -0.1460   -0.7121 H   0  0  0  0  0  0  0  0  0  0  0  0
    2.3846    1.1485    0.1305 H   0  0  0  0  0  0  0  0  0  0  0  0
    4.0878    1.9490   -1.0914 H   0  0  0  0  0  0  0  0  0  0  0  0
  1  2  1  0
  2  3  1  0
  3  4  2  0
  4  5  1  0
  5  6  2  0
  6  7  1  0
  6  8  1  0
  8  9  1  0
  9 10  1  0
 10 11  2  0
 10 12  1  0
 12 13  2  0
 13 14  1  0
 14 15  1  0
 15 16  1  0
 13 17  1  0
 17  3  1  0
 17  8  2  0
  1 18  1  0
  1 19  1  0
  1 20  1  0
  4 21  1  0
  5 22  1  0
  9 23  1  0
 12 24  1  0
 14 25  1  0
 14 26  1  0
 15 27  1  0
 15 28  1  0
 16 29  1  0
M  END
>  <Unnamed: 0>  (12) 
41

>  <ID>  (12) 
TRAIN_0041

>  <Canonical_Smiles>  (12) 
COc1ccc(Br)c2NC(=O)C=C(CCO)c12

>  <Inhibition>  (12) 
0.0

>  <TDC_conf_true_inhibitor>  (12) 
0

>  <TDC_conf_non_inhibitor>  (12) 
1

>  <split>  (12) 
1

$$$$
12
     RDKit          3D

 36 37  0  0  0  0  0  0  0  0999 V2000
    5.6890    1.1944   -0.6548 C   0  0  0  0  0  0  0  0  0  0  0  0
    4.8285    1.6520    0.5077 C   0  0  0  0  0  0  0  0  0  0  0  0
    3.4807    1.1761    0.3453 O   0  0  0  0  0  0  0  0  0  0  0  0
    3.2423   -0.0858    0.8111 C   0  0  0  0  0  0  0  0  0  0  0  0
    4.0676   -0.7812    1.3801 O   0  0  0  0  0  0  0  0  0  0  0  0
    1.8368   -0.4792    0.5429 C   0  0  0  0  0  0  0  0  0  0  0  0
    0.8247    0.4181    0.5430 C   0  0  0  0  0  0  0  0  0  0  0  0
    0.9749    1.7819    0.7296 O   0  0  0  0  0  0  0  0  0  0  0  0
   -0.5755   -0.0146    0.3618 C   0  0  0  0  0  0  0  0  0  0  0  0
   -1.6503    0.8862    0.3615 C   0  0  0  0  0  0  0  0  0  0  0  0
   -2.9665    0.4356    0.1930 C   0  0  0  0  0  0  0  0  0  0  0  0
   -4.0699    1.2532    0.1805 O   0  0  0  0  0  0  0  0  0  0  0  0
   -3.8636    2.6459    0.3699 C   0  0  0  0  0  0  0  0  0  0  0  0
   -3.2175   -0.9412    0.0214 C   0  0  0  0  0  0  0  0  0  0  0  0
   -4.5338   -1.2977   -0.1380 O   0  0  0  0  0  0  0  0  0  0  0  0
   -4.8344   -2.6766   -0.2968 C   0  0  0  0  0  0  0  0  0  0  0  0
   -2.1493   -1.8425    0.0208 C   0  0  0  0  0  0  0  0  0  0  0  0
   -0.8445   -1.3739    0.1906 C   0  0  0  0  0  0  0  0  0  0  0  0
    0.2164   -2.2807    0.1801 N   0  0  0  0  0  0  0  0  0  0  0  0
    1.5308   -1.9228    0.3176 C   0  0  0  0  0  0  0  0  0  0  0  0
    2.4012   -2.7823    0.2213 O   0  0  0  0  0  0  0  0  0  0  0  0
    5.2533    1.5175   -1.6059 H   0  0  0  0  0  0  0  0  0  0  0  0
    5.7550    0.1024   -0.6896 H   0  0  0  0  0  0  0  0  0  0  0  0
    6.7003    1.6026   -0.5729 H   0  0  0  0  0  0  0  0  0  0  0  0
    4.7790    2.7457    0.5204 H   0  0  0  0  0  0  0  0  0  0  0  0
    5.2490    1.3386    1.4700 H   0  0  0  0  0  0  0  0  0  0  0  0
    1.9241    2.0072    0.6728 H   0  0  0  0  0  0  0  0  0  0  0  0
   -1.4395    1.9421    0.4961 H   0  0  0  0  0  0  0  0  0  0  0  0
   -4.8417    3.1357    0.3400 H   0  0  0  0  0  0  0  0  0  0  0  0
   -3.4201    2.8503    1.3499 H   0  0  0  0  0  0  0  0  0  0  0  0
   -3.2562    3.0684   -0.4372 H   0  0  0  0  0  0  0  0  0  0  0  0
   -4.3768   -3.0778   -1.2070 H   0  0  0  0  0  0  0  0  0  0  0  0
   -5.9195   -2.7728   -0.4005 H   0  0  0  0  0  0  0  0  0  0  0  0
   -4.5325   -3.2509    0.5852 H   0  0  0  0  0  0  0  0  0  0  0  0
   -2.3118   -2.9059   -0.1105 H   0  0  0  0  0  0  0  0  0  0  0  0
    0.0497   -3.2680    0.0322 H   0  0  0  0  0  0  0  0  0  0  0  0
  1  2  1  0
  2  3  1  0
  3  4  1  0
  4  5  2  0
  4  6  1  0
  6  7  2  0
  7  8  1  0
  7  9  1  0
  9 10  2  0
 10 11  1  0
 11 12  1  0
 12 13  1  0
 11 14  2  0
 14 15  1  0
 15 16  1  0
 14 17  1  0
 17 18  2  0
 18 19  1  0
 19 20  1  0
 20 21  2  0
 20  6  1  0
 18  9  1  0
  1 22  1  0
  1 23  1  0
  1 24  1  0
  2 25  1  0
  2 26  1  0
  8 27  1  0
 10 28  1  0
 13 29  1  0
 13 30  1  0
 13 31  1  0
 16 32  1  0
 16 33  1  0
 16 34  1  0
 17 35  1  0
 19 36  1  0
M  END
>  <Unnamed: 0>  (13) 
416

>  <ID>  (13) 
TRAIN_0416

>  <Canonical_Smiles>  (13) 
CCOC(=O)C1=C(O)c2cc(OC)c(OC)cc2NC1=O

>  <Inhibition>  (13) 
44.4

>  <TDC_conf_true_inhibitor>  (13) 
0

>  <TDC_conf_non_inhibitor>  (13) 
1

>  <split>  (13) 
1

$$$$
13
     RDKit          3D

 31 32  0  0  0  0  0  0  0  0999 V2000
   -1.9451    4.5321    0.2379 C   0  0  0  0  0  0  0  0  0  0  0  0
   -2.0342    3.1091    0.1903 O   0  0  0  0  0  0  0  0  0  0  0  0
   -0.8346    2.4781    0.0172 C   0  0  0  0  0  0  0  0  0  0  0  0
    0.2386    3.0632   -0.0815 O   0  0  0  0  0  0  0  0  0  0  0  0
   -1.0230    1.0492   -0.0179 C   0  0  0  0  0  0  0  0  0  0  0  0
   -2.2687    0.5145    0.2162 O   0  0  0  0  0  0  0  0  0  0  0  0
   -2.1590   -0.8393    0.1184 C   0  0  0  0  0  0  0  0  0  0  0  0
   -3.2041   -1.7459    0.2799 C   0  0  0  0  0  0  0  0  0  0  0  0
   -2.8856   -3.0997    0.1272 C   0  0  0  0  0  0  0  0  0  0  0  0
   -1.5829   -3.5066   -0.1742 C   0  0  0  0  0  0  0  0  0  0  0  0
   -0.5514   -2.5699   -0.3305 C   0  0  0  0  0  0  0  0  0  0  0  0
   -0.8510   -1.2045   -0.1740 C   0  0  0  0  0  0  0  0  0  0  0  0
   -0.1339    0.0160   -0.2405 C   0  0  0  0  0  0  0  0  0  0  0  0
    1.1722    0.1819   -0.5409 O   0  0  0  0  0  0  0  0  0  0  0  0
    2.0012   -0.0463    0.6020 C   0  0  0  0  0  0  0  0  0  0  0  0
    3.4613    0.1091    0.1846 C   0  0  0  0  0  0  0  0  0  0  0  0
    3.8871   -0.8501   -0.9216 C   0  0  0  0  0  0  0  0  0  0  0  0
    3.8455   -2.5460   -0.3801 Cl  0  0  0  0  0  0  0  0  0  0  0  0
   -2.9544    4.9306    0.3728 H   0  0  0  0  0  0  0  0  0  0  0  0
   -1.5418    4.9235   -0.7013 H   0  0  0  0  0  0  0  0  0  0  0  0
   -1.3316    4.8501    1.0867 H   0  0  0  0  0  0  0  0  0  0  0  0
   -4.2095   -1.4135    0.5078 H   0  0  0  0  0  0  0  0  0  0  0  0
   -3.6676   -3.8477    0.2419 H   0  0  0  0  0  0  0  0  0  0  0  0
   -1.3637   -4.5661   -0.2914 H   0  0  0  0  0  0  0  0  0  0  0  0
    0.4578   -2.8946   -0.5678 H   0  0  0  0  0  0  0  0  0  0  0  0
    1.8241   -1.0436    1.0212 H   0  0  0  0  0  0  0  0  0  0  0  0
    1.7721    0.6981    1.3753 H   0  0  0  0  0  0  0  0  0  0  0  0
    3.6104    1.1305   -0.1870 H   0  0  0  0  0  0  0  0  0  0  0  0
    4.1079   -0.0137    1.0612 H   0  0  0  0  0  0  0  0  0  0  0  0
    4.9158   -0.6355   -1.2265 H   0  0  0  0  0  0  0  0  0  0  0  0
    3.2481   -0.7629   -1.8052 H   0  0  0  0  0  0  0  0  0  0  0  0
  1  2  1  0
  2  3  1  0
  3  4  2  0
  3  5  1  0
  5  6  1  0
  6  7  1  0
  7  8  2  0
  8  9  1  0
  9 10  2  0
 10 11  1  0
 11 12  2  0
 12 13  1  0
 13 14  1  0
 14 15  1  0
 15 16  1  0
 16 17  1  0
 17 18  1  0
 13  5  2  0
 12  7  1  0
  1 19  1  0
  1 20  1  0
  1 21  1  0
  8 22  1  0
  9 23  1  0
 10 24  1  0
 11 25  1  0
 15 26  1  0
 15 27  1  0
 16 28  1  0
 16 29  1  0
 17 30  1  0
 17 31  1  0
M  END
>  <Unnamed: 0>  (14) 
44

>  <ID>  (14) 
TRAIN_0044

>  <Canonical_Smiles>  (14) 
COC(=O)c1oc2ccccc2c1OCCCCl

>  <Inhibition>  (14) 
39.0

>  <TDC_conf_true_inhibitor>  (14) 
0

>  <TDC_conf_non_inhibitor>  (14) 
1

>  <split>  (14) 
1

$$$$
14
     RDKit          3D

 38 39  0  0  0  0  0  0  0  0999 V2000
    5.6377    1.0478   -1.3810 C   0  0  0  0  0  0  0  0  0  0  0  0
    4.9255    0.9676   -0.0299 C   0  0  0  0  0  0  0  0  0  0  0  0
    5.8981    0.5321    1.0673 C   0  0  0  0  0  0  0  0  0  0  0  0
    3.7217    0.0874   -0.0978 C   0  0  0  0  0  0  0  0  0  0  0  0
    3.7916   -1.2464   -0.2119 N   0  0  0  0  0  0  0  0  0  0  0  0
    2.4509   -1.6350   -0.2398 O   0  0  0  0  0  0  0  0  0  0  0  0
    1.7148   -0.4894   -0.1467 C   0  0  0  0  0  0  0  0  0  0  0  0
    0.2409   -0.6384   -0.1777 C   0  0  0  0  0  0  0  0  0  0  0  0
   -0.2804   -0.5846   -1.6141 C   0  0  0  0  0  0  0  0  0  0  0  0
   -1.7798   -0.8587   -1.7136 C   0  0  0  0  0  0  0  0  0  0  0  0
   -2.5396    0.2237   -1.1153 N   0  0  0  0  0  0  0  0  0  0  0  0
   -3.2799   -0.0858    0.0131 C   0  0  0  0  0  0  0  0  0  0  0  0
   -4.4401    0.5726    0.1402 N   0  0  0  0  0  0  0  0  0  0  0  0
   -5.1912    0.3332    1.2362 C   0  0  0  0  0  0  0  0  0  0  0  0
   -6.4805    1.0852    1.3669 C   0  0  0  0  0  0  0  0  0  0  0  0
   -4.8041   -0.5598    2.2047 C   0  0  0  0  0  0  0  0  0  0  0  0
   -3.6045   -1.1792    1.9688 C   0  0  0  0  0  0  0  0  0  0  0  0
   -2.9831   -2.3307    3.0804 Cl  0  0  0  0  0  0  0  0  0  0  0  0
   -2.8256   -0.9724    0.8984 N   0  0  0  0  0  0  0  0  0  0  0  0
    2.4483    0.5970   -0.0618 N   0  0  0  0  0  0  0  0  0  0  0  0
    6.0258    0.0714   -1.6915 H   0  0  0  0  0  0  0  0  0  0  0  0
    4.9535    1.3959   -2.1633 H   0  0  0  0  0  0  0  0  0  0  0  0
    6.4794    1.7469   -1.3361 H   0  0  0  0  0  0  0  0  0  0  0  0
    4.5828    1.9807    0.2225 H   0  0  0  0  0  0  0  0  0  0  0  0
    5.3955    0.4852    2.0405 H   0  0  0  0  0  0  0  0  0  0  0  0
    6.3214   -0.4582    0.8631 H   0  0  0  0  0  0  0  0  0  0  0  0
    6.7289    1.2407    1.1517 H   0  0  0  0  0  0  0  0  0  0  0  0
   -0.0391   -1.5888    0.2913 H   0  0  0  0  0  0  0  0  0  0  0  0
   -0.2036    0.1640    0.4212 H   0  0  0  0  0  0  0  0  0  0  0  0
    0.2468   -1.3319   -2.2221 H   0  0  0  0  0  0  0  0  0  0  0  0
   -0.0496    0.3936   -2.0560 H   0  0  0  0  0  0  0  0  0  0  0  0
   -2.0221   -1.8470   -1.3031 H   0  0  0  0  0  0  0  0  0  0  0  0
   -2.0456   -0.9055   -2.7770 H   0  0  0  0  0  0  0  0  0  0  0  0
   -3.1710    0.7135   -1.7420 H   0  0  0  0  0  0  0  0  0  0  0  0
   -6.6346    1.7474    0.5086 H   0  0  0  0  0  0  0  0  0  0  0  0
   -6.4701    1.6989    2.2735 H   0  0  0  0  0  0  0  0  0  0  0  0
   -7.3225    0.3873    1.4139 H   0  0  0  0  0  0  0  0  0  0  0  0
   -5.3965   -0.7605    3.0859 H   0  0  0  0  0  0  0  0  0  0  0  0
  1  2  1  0
  2  3  1  0
  2  4  1  0
  4  5  2  0
  5  6  1  0
  6  7  1  0
  7  8  1  0
  8  9  1  0
  9 10  1  0
 10 11  1  0
 11 12  1  0
 12 13  2  0
 13 14  1  0
 14 15  1  0
 14 16  2  0
 16 17  1  0
 17 18  1  0
 17 19  2  0
  7 20  2  0
 20  4  1  0
 19 12  1  0
  1 21  1  0
  1 22  1  0
  1 23  1  0
  2 24  1  0
  3 25  1  0
  3 26  1  0
  3 27  1  0
  8 28  1  0
  8 29  1  0
  9 30  1  0
  9 31  1  0
 10 32  1  0
 10 33  1  0
 11 34  1  0
 15 35  1  0
 15 36  1  0
 15 37  1  0
 16 38  1  0
M  END
>  <Unnamed: 0>  (15) 
48

>  <ID>  (15) 
TRAIN_0048

>  <Canonical_Smiles>  (15) 
CC(C)c1noc(CCCNc2nc(C)cc(Cl)n2)n1

>  <Inhibition>  (15) 
0.0

>  <TDC_conf_true_inhibitor>  (15) 
0

>  <TDC_conf_non_inhibitor>  (15) 
1

>  <split>  (15) 
1

$$$$
15
     RDKit          3D

 56 59  0  0  0  0  0  0  0  0999 V2000
   -8.2233   -1.5312    1.1606 C   0  0  0  0  0  0  0  0  0  0  0  0
   -6.8168   -1.0503    0.9667 C   0  0  0  0  0  0  0  0  0  0  0  0
   -6.4298   -0.4390   -0.2238 C   0  0  0  0  0  0  0  0  0  0  0  0
   -5.1085   -0.0173   -0.4091 C   0  0  0  0  0  0  0  0  0  0  0  0
   -4.1332   -0.1885    0.5827 C   0  0  0  0  0  0  0  0  0  0  0  0
   -2.7963    0.2004    0.4017 N   0  0  0  0  0  0  0  0  0  0  0  0
   -2.0760    0.7345   -0.6659 C   0  0  0  0  0  0  0  0  0  0  0  0
   -2.5808    0.8001   -1.8919 N   0  0  0  0  0  0  0  0  0  0  0  0
   -1.7973    1.3252   -2.8180 C   0  0  0  0  0  0  0  0  0  0  0  0
   -2.2909    1.3940   -4.1062 N   0  0  0  0  0  0  0  0  0  0  0  0
   -0.5655    1.7557   -2.6192 N   0  0  0  0  0  0  0  0  0  0  0  0
   -0.1291    1.6438   -1.3653 C   0  0  0  0  0  0  0  0  0  0  0  0
    1.2927    2.0958   -1.0591 C   0  0  0  0  0  0  0  0  0  0  0  0
    2.3510    1.1162   -1.4040 N   0  0  0  0  0  0  0  0  0  0  0  0
    2.2670   -0.1260   -0.5962 C   0  0  0  0  0  0  0  0  0  0  0  0
    2.6459    0.0288    0.8976 C   0  0  0  0  0  0  0  0  0  0  0  0
    3.9880    0.6405    1.0422 N   0  0  0  0  0  0  0  0  0  0  0  0
    4.1405    1.8848    0.2637 C   0  0  0  0  0  0  0  0  0  0  0  0
    3.6975    1.7070   -1.2108 C   0  0  0  0  0  0  0  0  0  0  0  0
    5.0575   -0.2508    1.1709 C   0  0  0  0  0  0  0  0  0  0  0  0
    5.0328   -1.2295    2.1811 C   0  0  0  0  0  0  0  0  0  0  0  0
    6.0800   -2.1401    2.3608 C   0  0  0  0  0  0  0  0  0  0  0  0
    7.1938   -2.0877    1.5328 C   0  0  0  0  0  0  0  0  0  0  0  0
    7.2583   -1.1200    0.5373 C   0  0  0  0  0  0  0  0  0  0  0  0
    6.2055   -0.2111    0.3663 C   0  0  0  0  0  0  0  0  0  0  0  0
   -0.8461    1.1387   -0.3558 N   0  0  0  0  0  0  0  0  0  0  0  0
   -4.5191   -0.8431    1.7767 C   0  0  0  0  0  0  0  0  0  0  0  0
   -3.5345   -1.1114    2.8852 C   0  0  0  0  0  0  0  0  0  0  0  0
   -5.8526   -1.2605    1.9557 C   0  0  0  0  0  0  0  0  0  0  0  0
   -8.9229   -0.9658    0.5357 H   0  0  0  0  0  0  0  0  0  0  0  0
   -8.5378   -1.3990    2.2014 H   0  0  0  0  0  0  0  0  0  0  0  0
   -8.2962   -2.5912    0.8985 H   0  0  0  0  0  0  0  0  0  0  0  0
   -7.1502   -0.2801   -1.0229 H   0  0  0  0  0  0  0  0  0  0  0  0
   -4.8672    0.4649   -1.3513 H   0  0  0  0  0  0  0  0  0  0  0  0
   -2.2311    0.2624    1.2342 H   0  0  0  0  0  0  0  0  0  0  0  0
   -3.0046    0.6909   -4.2387 H   0  0  0  0  0  0  0  0  0  0  0  0
   -1.5242    1.4022   -4.7650 H   0  0  0  0  0  0  0  0  0  0  0  0
    1.4559    3.0101   -1.6448 H   0  0  0  0  0  0  0  0  0  0  0  0
    1.3402    2.3960   -0.0059 H   0  0  0  0  0  0  0  0  0  0  0  0
    1.2715   -0.5758   -0.6778 H   0  0  0  0  0  0  0  0  0  0  0  0
    2.9464   -0.8596   -1.0511 H   0  0  0  0  0  0  0  0  0  0  0  0
    2.5655   -0.9490    1.3847 H   0  0  0  0  0  0  0  0  0  0  0  0
    1.9176    0.6745    1.4025 H   0  0  0  0  0  0  0  0  0  0  0  0
    5.1615    2.2805    0.3159 H   0  0  0  0  0  0  0  0  0  0  0  0
    3.5138    2.6519    0.7354 H   0  0  0  0  0  0  0  0  0  0  0  0
    4.4156    1.0561   -1.7246 H   0  0  0  0  0  0  0  0  0  0  0  0
    3.7608    2.6723   -1.7281 H   0  0  0  0  0  0  0  0  0  0  0  0
    4.1946   -1.2725    2.8723 H   0  0  0  0  0  0  0  0  0  0  0  0
    6.0238   -2.8794    3.1549 H   0  0  0  0  0  0  0  0  0  0  0  0
    8.0108   -2.7906    1.6679 H   0  0  0  0  0  0  0  0  0  0  0  0
    8.1280   -1.0661   -0.1120 H   0  0  0  0  0  0  0  0  0  0  0  0
    6.3083    0.5168   -0.4311 H   0  0  0  0  0  0  0  0  0  0  0  0
   -2.6878   -1.6952    2.5098 H   0  0  0  0  0  0  0  0  0  0  0  0
   -3.1732   -0.1676    3.3060 H   0  0  0  0  0  0  0  0  0  0  0  0
   -3.9885   -1.6851    3.7004 H   0  0  0  0  0  0  0  0  0  0  0  0
   -6.1415   -1.7607    2.8786 H   0  0  0  0  0  0  0  0  0  0  0  0
  1  2  1  0
  2  3  2  0
  3  4  1  0
  4  5  2  0
  5  6  1  0
  6  7  1  0
  7  8  2  0
  8  9  1  0
  9 10  1  0
  9 11  2  0
 11 12  1  0
 12 13  1  0
 13 14  1  0
 14 15  1  0
 15 16  1  0
 16 17  1  0
 17 18  1  0
 18 19  1  0
 17 20  1  0
 20 21  2  0
 21 22  1  0
 22 23  2  0
 23 24  1  0
 24 25  2  0
 12 26  2  0
  5 27  1  0
 27 28  1  0
 27 29  2  0
 29  2  1  0
 26  7  1  0
 19 14  1  0
 25 20  1  0
  1 30  1  0
  1 31  1  0
  1 32  1  0
  3 33  1  0
  4 34  1  0
  6 35  1  0
 10 36  1  0
 10 37  1  0
 13 38  1  0
 13 39  1  0
 15 40  1  0
 15 41  1  0
 16 42  1  0
 16 43  1  0
 18 44  1  0
 18 45  1  0
 19 46  1  0
 19 47  1  0
 21 48  1  0
 22 49  1  0
 23 50  1  0
 24 51  1  0
 25 52  1  0
 28 53  1  0
 28 54  1  0
 28 55  1  0
 29 56  1  0
M  END
>  <Unnamed: 0>  (16) 
57

>  <ID>  (16) 
TRAIN_0057

>  <Canonical_Smiles>  (16) 
Cc1ccc(Nc2nc(N)nc(CN3CCN(CC3)c4ccccc4)n2)c(C)c1

>  <Inhibition>  (16) 
43.6

>  <TDC_conf_true_inhibitor>  (16) 
1

>  <TDC_conf_non_inhibitor>  (16) 
0

>  <split>  (16) 
1

$$$$
16
     RDKit          3D

 26 28  0  0  0  0  0  0  0  0999 V2000
    6.1169    1.0135   -0.0255 Cl  0  0  0  0  0  0  0  0  0  0  0  0
    4.4695    0.5376    0.1002 C   0  0  0  0  0  0  0  0  0  0  0  0
    4.1408   -0.6544    0.7450 C   0  0  0  0  0  0  0  0  0  0  0  0
    2.8016   -1.0418    0.8475 C   0  0  0  0  0  0  0  0  0  0  0  0
    1.7919   -0.2423    0.3082 C   0  0  0  0  0  0  0  0  0  0  0  0
    0.4659   -0.6456    0.4208 N   0  0  0  0  0  0  0  0  0  0  0  0
   -0.4354    0.1259   -0.0933 C   0  0  0  0  0  0  0  0  0  0  0  0
   -0.2146    1.2943   -0.7341 O   0  0  0  0  0  0  0  0  0  0  0  0
    1.0494    1.7529   -0.8834 C   0  0  0  0  0  0  0  0  0  0  0  0
    1.2893    2.8081   -1.4586 O   0  0  0  0  0  0  0  0  0  0  0  0
    2.1366    0.9398   -0.3296 C   0  0  0  0  0  0  0  0  0  0  0  0
    3.4723    1.3431   -0.4414 C   0  0  0  0  0  0  0  0  0  0  0  0
   -1.8891   -0.1854   -0.0437 C   0  0  0  0  0  0  0  0  0  0  0  0
   -2.8520    0.6644   -0.6074 C   0  0  0  0  0  0  0  0  0  0  0  0
   -4.2083    0.3347   -0.5390 C   0  0  0  0  0  0  0  0  0  0  0  0
   -4.6118   -0.8417    0.0905 C   0  0  0  0  0  0  0  0  0  0  0  0
   -3.6622   -1.6922    0.6535 C   0  0  0  0  0  0  0  0  0  0  0  0
   -2.3056   -1.3664    0.5873 C   0  0  0  0  0  0  0  0  0  0  0  0
    4.9179   -1.2856    1.1691 H   0  0  0  0  0  0  0  0  0  0  0  0
    2.5415   -1.9706    1.3496 H   0  0  0  0  0  0  0  0  0  0  0  0
    3.7251    2.2733   -0.9449 H   0  0  0  0  0  0  0  0  0  0  0  0
   -2.5673    1.5886   -1.1048 H   0  0  0  0  0  0  0  0  0  0  0  0
   -4.9504    0.9976   -0.9779 H   0  0  0  0  0  0  0  0  0  0  0  0
   -5.6679   -1.0959    0.1423 H   0  0  0  0  0  0  0  0  0  0  0  0
   -3.9766   -2.6100    1.1446 H   0  0  0  0  0  0  0  0  0  0  0  0
   -1.5776   -2.0418    1.0320 H   0  0  0  0  0  0  0  0  0  0  0  0
  1  2  1  0
  2  3  2  0
  3  4  1  0
  4  5  2  0
  5  6  1  0
  6  7  2  0
  7  8  1  0
  8  9  1  0
  9 10  2  0
  9 11  1  0
 11 12  2  0
  7 13  1  0
 13 14  2  0
 14 15  1  0
 15 16  2  0
 16 17  1  0
 17 18  2  0
 12  2  1  0
 11  5  1  0
 18 13  1  0
  3 19  1  0
  4 20  1  0
 12 21  1  0
 14 22  1  0
 15 23  1  0
 16 24  1  0
 17 25  1  0
 18 26  1  0
M  END
>  <Unnamed: 0>  (17) 
63

>  <ID>  (17) 
TRAIN_0063

>  <Canonical_Smiles>  (17) 
Clc1ccc2N=C(OC(=O)c2c1)c3ccccc3

>  <Inhibition>  (17) 
5.96

>  <TDC_conf_true_inhibitor>  (17) 
0

>  <TDC_conf_non_inhibitor>  (17) 
1

>  <split>  (17) 
1

$$$$
17
     RDKit          3D

 60 63  0  0  0  0  0  0  0  0999 V2000
    8.4551   -1.8007    1.2391 O   0  0  0  0  0  0  0  0  0  0  0  0
    7.1602   -1.9730    0.9205 C   0  0  0  0  0  0  0  0  0  0  0  0
    6.6996   -3.0823    0.7240 O   0  0  0  0  0  0  0  0  0  0  0  0
    6.4099   -0.6964    0.8445 C   0  0  0  0  0  0  0  0  0  0  0  0
    7.0305    0.5413    1.0374 C   0  0  0  0  0  0  0  0  0  0  0  0
    6.2812    1.7134    0.9516 C   0  0  0  0  0  0  0  0  0  0  0  0
    4.9129    1.6513    0.6737 C   0  0  0  0  0  0  0  0  0  0  0  0
    4.2638    0.4201    0.4767 C   0  0  0  0  0  0  0  0  0  0  0  0
    5.0358   -0.7512    0.5670 C   0  0  0  0  0  0  0  0  0  0  0  0
    2.8205    0.3575    0.1859 C   0  0  0  0  0  0  0  0  0  0  0  0
    1.8899    1.0531    0.9701 C   0  0  0  0  0  0  0  0  0  0  0  0
    0.5174    0.9892    0.6964 C   0  0  0  0  0  0  0  0  0  0  0  0
    0.0296    0.2285   -0.3739 C   0  0  0  0  0  0  0  0  0  0  0  0
    0.9529   -0.4760   -1.1532 C   0  0  0  0  0  0  0  0  0  0  0  0
    2.3259   -0.4072   -0.8805 C   0  0  0  0  0  0  0  0  0  0  0  0
   -1.3759    0.1409   -0.6446 N   0  0  0  0  0  0  0  0  0  0  0  0
   -1.9376   -1.2001   -0.8881 C   0  0  0  0  0  0  0  0  0  0  0  0
   -2.1049   -2.0117    0.4127 C   0  0  0  0  0  0  0  0  0  0  0  0
   -2.7423   -3.3303    0.3495 N   0  0  0  0  0  0  0  0  0  0  0  0
   -4.1932   -3.3160    0.1111 C   0  0  0  0  0  0  0  0  0  0  0  0
   -4.6212   -3.4485   -1.3593 C   0  0  0  0  0  0  0  0  0  0  0  0
   -3.9838   -4.5624   -1.9951 O   0  0  0  0  0  0  0  0  0  0  0  0
   -2.5611   -4.4264   -1.9313 C   0  0  0  0  0  0  0  0  0  0  0  0
   -2.0663   -4.3359   -0.4785 C   0  0  0  0  0  0  0  0  0  0  0  0
   -2.3082    1.1478   -0.3182 C   0  0  0  0  0  0  0  0  0  0  0  0
   -3.4795    0.8836   -0.0564 O   0  0  0  0  0  0  0  0  0  0  0  0
   -1.7961    2.4274   -0.4219 N   0  0  0  0  0  0  0  0  0  0  0  0
   -2.4255    3.6434   -0.0982 C   0  0  0  0  0  0  0  0  0  0  0  0
   -1.7542    4.8234   -0.4459 C   0  0  0  0  0  0  0  0  0  0  0  0
   -2.3064    6.0726   -0.1463 C   0  0  0  0  0  0  0  0  0  0  0  0
   -3.5315    6.1463    0.5096 C   0  0  0  0  0  0  0  0  0  0  0  0
   -4.2114    7.6810    0.8831 Cl  0  0  0  0  0  0  0  0  0  0  0  0
   -4.2057    4.9822    0.8665 C   0  0  0  0  0  0  0  0  0  0  0  0
   -3.6521    3.7328    0.5641 C   0  0  0  0  0  0  0  0  0  0  0  0
    8.8160   -2.7118    1.2570 H   0  0  0  0  0  0  0  0  0  0  0  0
    8.0943    0.6035    1.2532 H   0  0  0  0  0  0  0  0  0  0  0  0
    6.7622    2.6775    1.0987 H   0  0  0  0  0  0  0  0  0  0  0  0
    4.3535    2.5826    0.6001 H   0  0  0  0  0  0  0  0  0  0  0  0
    4.5620   -1.7233    0.4336 H   0  0  0  0  0  0  0  0  0  0  0  0
    2.2228    1.6352    1.8278 H   0  0  0  0  0  0  0  0  0  0  0  0
   -0.1596    1.5088    1.3714 H   0  0  0  0  0  0  0  0  0  0  0  0
    0.6380   -1.0604   -2.0128 H   0  0  0  0  0  0  0  0  0  0  0  0
    3.0122   -0.9536   -1.5259 H   0  0  0  0  0  0  0  0  0  0  0  0
   -2.9107   -1.0664   -1.3705 H   0  0  0  0  0  0  0  0  0  0  0  0
   -1.3153   -1.7383   -1.6060 H   0  0  0  0  0  0  0  0  0  0  0  0
   -1.1115   -2.1503    0.8605 H   0  0  0  0  0  0  0  0  0  0  0  0
   -2.6455   -1.4047    1.1508 H   0  0  0  0  0  0  0  0  0  0  0  0
   -4.6012   -4.1818    0.6491 H   0  0  0  0  0  0  0  0  0  0  0  0
   -4.6645   -2.4350    0.5625 H   0  0  0  0  0  0  0  0  0  0  0  0
   -4.4093   -2.5411   -1.9324 H   0  0  0  0  0  0  0  0  0  0  0  0
   -5.7017   -3.6175   -1.4110 H   0  0  0  0  0  0  0  0  0  0  0  0
   -2.2597   -3.5562   -2.5224 H   0  0  0  0  0  0  0  0  0  0  0  0
   -2.1256   -5.3094   -2.4104 H   0  0  0  0  0  0  0  0  0  0  0  0
   -0.9784   -4.2021   -0.4566 H   0  0  0  0  0  0  0  0  0  0  0  0
   -2.2592   -5.3075   -0.0053 H   0  0  0  0  0  0  0  0  0  0  0  0
   -0.9115    2.4871   -0.9066 H   0  0  0  0  0  0  0  0  0  0  0  0
   -0.7958    4.7881   -0.9577 H   0  0  0  0  0  0  0  0  0  0  0  0
   -1.7768    6.9788   -0.4265 H   0  0  0  0  0  0  0  0  0  0  0  0
   -5.1608    5.0328    1.3822 H   0  0  0  0  0  0  0  0  0  0  0  0
   -4.2019    2.8470    0.8678 H   0  0  0  0  0  0  0  0  0  0  0  0
  1  2  1  0
  2  3  2  0
  2  4  1  0
  4  5  2  0
  5  6  1  0
  6  7  2  0
  7  8  1  0
  8  9  2  0
  8 10  1  0
 10 11  2  0
 11 12  1  0
 12 13  2  0
 13 14  1  0
 14 15  2  0
 13 16  1  0
 16 17  1  0
 17 18  1  0
 18 19  1  0
 19 20  1  0
 20 21  1  0
 21 22  1  0
 22 23  1  0
 23 24  1  0
 16 25  1  0
 25 26  2  0
 25 27  1  0
 27 28  1  0
 28 29  2  0
 29 30  1  0
 30 31  2  0
 31 32  1  0
 31 33  1  0
 33 34  2  0
  9  4  1  0
 15 10  1  0
 24 19  1  0
 34 28  1  0
  1 35  1  0
  5 36  1  0
  6 37  1  0
  7 38  1  0
  9 39  1  0
 11 40  1  0
 12 41  1  0
 14 42  1  0
 15 43  1  0
 17 44  1  0
 17 45  1  0
 18 46  1  0
 18 47  1  0
 20 48  1  0
 20 49  1  0
 21 50  1  0
 21 51  1  0
 23 52  1  0
 23 53  1  0
 24 54  1  0
 24 55  1  0
 27 56  1  0
 29 57  1  0
 30 58  1  0
 33 59  1  0
 34 60  1  0
M  END
>  <Unnamed: 0>  (18) 
66

>  <ID>  (18) 
TRAIN_0066

>  <Canonical_Smiles>  (18) 
OC(=O)c1cccc(c1)c2ccc(cc2)N(CCN3CCOCC3)C(=O)Nc4ccc(Cl)cc4

>  <Inhibition>  (18) 
29.5

>  <TDC_conf_true_inhibitor>  (18) 
0

>  <TDC_conf_non_inhibitor>  (18) 
1

>  <split>  (18) 
1

$$$$
18
     RDKit          3D

 60 63  0  0  0  0  0  0  0  0999 V2000
    7.8617   -1.8276   -1.0000 C   0  0  0  0  0  0  0  0  0  0  0  0
    6.6440   -2.2440   -1.8134 C   0  0  0  0  0  0  0  0  0  0  0  0
    5.5118   -2.8200   -0.9546 C   0  0  0  0  0  0  0  0  0  0  0  0
    4.8713   -1.8054    0.0004 C   0  0  0  0  0  0  0  0  0  0  0  0
    4.2460   -0.7847   -0.7756 O   0  0  0  0  0  0  0  0  0  0  0  0
    3.5111    0.0690    0.0160 C   0  0  0  0  0  0  0  0  0  0  0  0
    4.0266    0.4632    1.1914 N   0  0  0  0  0  0  0  0  0  0  0  0
    3.2836    1.3324    1.8804 C   0  0  0  0  0  0  0  0  0  0  0  0
    3.8260    1.7839    3.0935 N   0  0  0  0  0  0  0  0  0  0  0  0
    2.0451    1.7821    1.4360 C   0  0  0  0  0  0  0  0  0  0  0  0
    1.2853    2.6771    2.2005 N   0  0  0  0  0  0  0  0  0  0  0  0
    0.0284    3.0681    1.8297 C   0  0  0  0  0  0  0  0  0  0  0  0
   -0.5993    3.8819    2.5057 O   0  0  0  0  0  0  0  0  0  0  0  0
   -0.5758    2.3762    0.6101 C   0  0  0  0  0  0  0  0  0  0  0  0
    0.4043    1.8107   -0.3351 N   0  0  0  0  0  0  0  0  0  0  0  0
   -0.1110    1.2052   -1.5660 C   0  0  0  0  0  0  0  0  0  0  0  0
   -1.0557    0.0498   -1.2988 C   0  0  0  0  0  0  0  0  0  0  0  0
   -0.5591   -1.2193   -0.9682 C   0  0  0  0  0  0  0  0  0  0  0  0
   -1.4289   -2.2672   -0.6701 C   0  0  0  0  0  0  0  0  0  0  0  0
   -2.8073   -2.0602   -0.7024 C   0  0  0  0  0  0  0  0  0  0  0  0
   -3.3320   -0.8052   -1.0422 C   0  0  0  0  0  0  0  0  0  0  0  0
   -4.8320   -0.5883   -1.0682 C   0  0  0  0  0  0  0  0  0  0  0  0
   -5.4451   -0.6937    0.2692 N   0  0  0  0  0  0  0  0  0  0  0  0
   -6.9130   -0.6575    0.1865 C   0  0  0  0  0  0  0  0  0  0  0  0
   -7.2982    0.8146    0.1608 C   0  0  0  0  0  0  0  0  0  0  0  0
   -6.1113    1.5478    0.7741 C   0  0  0  0  0  0  0  0  0  0  0  0
   -5.1170    0.4519    1.1336 C   0  0  0  0  0  0  0  0  0  0  0  0
   -2.4472    0.2434   -1.3414 C   0  0  0  0  0  0  0  0  0  0  0  0
    1.6008    1.3286    0.1968 C   0  0  0  0  0  0  0  0  0  0  0  0
    2.3553    0.4812   -0.5229 N   0  0  0  0  0  0  0  0  0  0  0  0
    7.6292   -0.9984   -0.3249 H   0  0  0  0  0  0  0  0  0  0  0  0
    8.2331   -2.6640   -0.4004 H   0  0  0  0  0  0  0  0  0  0  0  0
    8.6689   -1.4958   -1.6652 H   0  0  0  0  0  0  0  0  0  0  0  0
    6.2850   -1.3878   -2.3951 H   0  0  0  0  0  0  0  0  0  0  0  0
    6.9517   -3.0078   -2.5381 H   0  0  0  0  0  0  0  0  0  0  0  0
    5.8837   -3.6740   -0.3785 H   0  0  0  0  0  0  0  0  0  0  0  0
    4.7378   -3.2004   -1.6365 H   0  0  0  0  0  0  0  0  0  0  0  0
    4.1151   -2.3276    0.6076 H   0  0  0  0  0  0  0  0  0  0  0  0
    5.6318   -1.3854    0.6690 H   0  0  0  0  0  0  0  0  0  0  0  0
    4.7389    1.3405    3.1888 H   0  0  0  0  0  0  0  0  0  0  0  0
    3.9232    2.7976    3.0836 H   0  0  0  0  0  0  0  0  0  0  0  0
    1.6413    3.0034    3.0893 H   0  0  0  0  0  0  0  0  0  0  0  0
   -1.1934    3.1145    0.0847 H   0  0  0  0  0  0  0  0  0  0  0  0
   -1.2295    1.5856    0.9987 H   0  0  0  0  0  0  0  0  0  0  0  0
    0.6860    0.8860   -2.2523 H   0  0  0  0  0  0  0  0  0  0  0  0
   -0.6514    1.9820   -2.1247 H   0  0  0  0  0  0  0  0  0  0  0  0
    0.5144   -1.3938   -0.9304 H   0  0  0  0  0  0  0  0  0  0  0  0
   -1.0307   -3.2414   -0.3983 H   0  0  0  0  0  0  0  0  0  0  0  0
   -3.4785   -2.8777   -0.4494 H   0  0  0  0  0  0  0  0  0  0  0  0
   -5.2478   -1.3694   -1.7238 H   0  0  0  0  0  0  0  0  0  0  0  0
   -5.0676    0.3686   -1.5558 H   0  0  0  0  0  0  0  0  0  0  0  0
   -7.3225   -1.1280    1.0908 H   0  0  0  0  0  0  0  0  0  0  0  0
   -7.3214   -1.2120   -0.6659 H   0  0  0  0  0  0  0  0  0  0  0  0
   -8.2223    0.9983    0.7218 H   0  0  0  0  0  0  0  0  0  0  0  0
   -7.4580    1.1541   -0.8689 H   0  0  0  0  0  0  0  0  0  0  0  0
   -6.4071    2.1282    1.6576 H   0  0  0  0  0  0  0  0  0  0  0  0
   -5.6808    2.2437    0.0403 H   0  0  0  0  0  0  0  0  0  0  0  0
   -4.0788    0.7929    1.0645 H   0  0  0  0  0  0  0  0  0  0  0  0
   -5.2719    0.1500    2.1783 H   0  0  0  0  0  0  0  0  0  0  0  0
   -2.8470    1.2243   -1.5924 H   0  0  0  0  0  0  0  0  0  0  0  0
  1  2  1  0
  2  3  1  0
  3  4  1  0
  4  5  1  0
  5  6  1  0
  6  7  2  0
  7  8  1  0
  8  9  1  0
  8 10  2  0
 10 11  1  0
 11 12  1  0
 12 13  2  0
 12 14  1  0
 14 15  1  0
 15 16  1  0
 16 17  1  0
 17 18  2  0
 18 19  1  0
 19 20  2  0
 20 21  1  0
 21 22  1  0
 22 23  1  0
 23 24  1  0
 24 25  1  0
 25 26  1  0
 26 27  1  0
 21 28  2  0
 15 29  1  0
 29 30  2  0
 30  6  1  0
 29 10  1  0
 28 17  1  0
 27 23  1  0
  1 31  1  0
  1 32  1  0
  1 33  1  0
  2 34  1  0
  2 35  1  0
  3 36  1  0
  3 37  1  0
  4 38  1  0
  4 39  1  0
  9 40  1  0
  9 41  1  0
 11 42  1  0
 14 43  1  0
 14 44  1  0
 16 45  1  0
 16 46  1  0
 18 47  1  0
 19 48  1  0
 20 49  1  0
 22 50  1  0
 22 51  1  0
 24 52  1  0
 24 53  1  0
 25 54  1  0
 25 55  1  0
 26 56  1  0
 26 57  1  0
 27 58  1  0
 27 59  1  0
 28 60  1  0
M  END
>  <Unnamed: 0>  (19) 
77

>  <ID>  (19) 
TRAIN_0077

>  <Canonical_Smiles>  (19) 
CCCCOc1nc(N)c2NC(=O)CN(Cc3cccc(CN4CCCC4)c3)c2n1

>  <Inhibition>  (19) 
29.2

>  <TDC_conf_true_inhibitor>  (19) 
0

>  <TDC_conf_non_inhibitor>  (19) 
1

>  <split>  (19) 
1

$$$$
19
     RDKit          3D

 33 34  0  0  0  0  0  0  0  0999 V2000
    5.7559    1.4362    0.4970 C   0  0  0  0  0  0  0  0  0  0  0  0
    4.3624    0.8838    0.4366 C   0  0  0  0  0  0  0  0  0  0  0  0
    3.7498    0.6254   -0.7958 C   0  0  0  0  0  0  0  0  0  0  0  0
    2.4643    0.0874   -0.8475 C   0  0  0  0  0  0  0  0  0  0  0  0
    1.7908   -0.1957    0.3415 C   0  0  0  0  0  0  0  0  0  0  0  0
    2.3984    0.0283    1.5781 C   0  0  0  0  0  0  0  0  0  0  0  0
    3.6822    0.5711    1.6218 C   0  0  0  0  0  0  0  0  0  0  0  0
    0.1450   -0.8722    0.2917 S   0  0  0  0  0  6  0  0  0  0  0  0
   -0.1615   -1.1443   -1.1007 O   0  0  0  0  0  0  0  0  0  0  0  0
    0.1024   -1.9303    1.2802 O   0  0  0  0  0  0  0  0  0  0  0  0
   -0.8559    0.4883    0.8198 C   0  0  0  0  0  0  0  0  0  0  0  0
   -2.2456    0.0220    1.1310 C   0  0  0  0  0  0  0  0  0  0  0  0
   -2.6360   -0.0301    2.2981 O   0  0  0  0  0  0  0  0  0  0  0  0
   -3.2044   -0.3335    0.0408 C   0  0  0  0  0  0  0  0  0  0  0  0
   -3.0198    0.0462   -1.2932 C   0  0  0  0  0  0  0  0  0  0  0  0
   -3.9741   -0.2928   -2.2602 C   0  0  0  0  0  0  0  0  0  0  0  0
   -5.1120   -1.0073   -1.8978 C   0  0  0  0  0  0  0  0  0  0  0  0
   -6.2917   -1.3924   -3.0892 Cl  0  0  0  0  0  0  0  0  0  0  0  0
   -5.3058   -1.3932   -0.5755 C   0  0  0  0  0  0  0  0  0  0  0  0
   -4.3582   -1.0498    0.3923 C   0  0  0  0  0  0  0  0  0  0  0  0
    5.8168    2.2401    1.2371 H   0  0  0  0  0  0  0  0  0  0  0  0
    6.4614    0.6432    0.7652 H   0  0  0  0  0  0  0  0  0  0  0  0
    6.0580    1.8572   -0.4659 H   0  0  0  0  0  0  0  0  0  0  0  0
    4.2750    0.8370   -1.7262 H   0  0  0  0  0  0  0  0  0  0  0  0
    2.0084   -0.1138   -1.8152 H   0  0  0  0  0  0  0  0  0  0  0  0
    1.8913   -0.2257    2.5063 H   0  0  0  0  0  0  0  0  0  0  0  0
    4.1581    0.7416    2.5870 H   0  0  0  0  0  0  0  0  0  0  0  0
   -0.4204    0.8810    1.7436 H   0  0  0  0  0  0  0  0  0  0  0  0
   -0.8450    1.2829    0.0731 H   0  0  0  0  0  0  0  0  0  0  0  0
   -2.1515    0.6077   -1.6186 H   0  0  0  0  0  0  0  0  0  0  0  0
   -3.8218    0.0032   -3.2937 H   0  0  0  0  0  0  0  0  0  0  0  0
   -6.1914   -1.9518   -0.2879 H   0  0  0  0  0  0  0  0  0  0  0  0
   -4.5250   -1.3497    1.4262 H   0  0  0  0  0  0  0  0  0  0  0  0
  1  2  1  0
  2  3  2  0
  3  4  1  0
  4  5  2  0
  5  6  1  0
  6  7  2  0
  5  8  1  0
  8  9  2  0
  8 10  2  0
  8 11  1  0
 11 12  1  0
 12 13  2  0
 12 14  1  0
 14 15  2  0
 15 16  1  0
 16 17  2  0
 17 18  1  0
 17 19  1  0
 19 20  2  0
  7  2  1  0
 20 14  1  0
  1 21  1  0
  1 22  1  0
  1 23  1  0
  3 24  1  0
  4 25  1  0
  6 26  1  0
  7 27  1  0
 11 28  1  0
 11 29  1  0
 15 30  1  0
 16 31  1  0
 19 32  1  0
 20 33  1  0
M  END
>  <Unnamed: 0>  (20) 
78

>  <ID>  (20) 
TRAIN_0078

>  <Canonical_Smiles>  (20) 
Cc1ccc(cc1)S(=O)(=O)CC(=O)c2ccc(Cl)cc2

>  <Inhibition>  (20) 
60.6

>  <TDC_conf_true_inhibitor>  (20) 
1

>  <TDC_conf_non_inhibitor>  (20) 
0

>  <split>  (20) 
1

$$$$
20
     RDKit          3D

 32 32  0  0  0  0  0  0  0  0999 V2000
   -2.4014    2.8401    2.5980 C   0  0  0  0  0  0  0  0  0  0  0  0
   -2.8045    2.2572    1.2551 C   0  0  0  0  0  0  0  0  0  0  0  0
   -1.6656    1.7869    0.5395 O   0  0  0  0  0  0  0  0  0  0  0  0
   -1.2982    0.4533    0.8845 C   0  0  0  0  0  0  0  0  0  0  0  0
   -2.1946   -0.5243    0.3480 O   0  0  0  0  0  0  0  0  0  0  0  0
   -2.3838   -0.4234   -1.0620 C   0  0  0  0  0  0  0  0  0  0  0  0
   -3.3455   -1.5173   -1.4858 C   0  0  0  0  0  0  0  0  0  0  0  0
    0.0853    0.1999    0.4570 C   0  0  0  0  0  0  0  0  0  0  0  0
    1.2173   -0.0110    0.1129 C   0  0  0  0  0  0  0  0  0  0  0  0
    2.5653   -0.2660   -0.3016 C   0  0  0  0  0  0  0  0  0  0  0  0
    3.3030    0.7670   -0.8739 C   0  0  0  0  0  0  0  0  0  0  0  0
    4.5861    0.6503   -1.2858 N   0  0  0  0  0  0  0  0  0  0  0  0
    5.1650   -0.5565   -1.0960 C   0  0  0  0  0  0  0  0  0  0  0  0
    4.5155   -1.6514   -0.5350 C   0  0  0  0  0  0  0  0  0  0  0  0
    5.5848   -3.4339   -0.3082 I   0  0  0  0  0  0  0  0  0  0  0  0
    3.1658   -1.5313   -0.1629 C   0  0  0  0  0  0  0  0  0  0  0  0
    2.5029   -2.5744    0.5236 N   0  0  0  0  0  0  0  0  0  0  0  0
   -1.6330    3.6091    2.4689 H   0  0  0  0  0  0  0  0  0  0  0  0
   -1.9791    2.0746    3.2553 H   0  0  0  0  0  0  0  0  0  0  0  0
   -3.2656    3.2852    3.0998 H   0  0  0  0  0  0  0  0  0  0  0  0
   -3.2557    3.0499    0.6492 H   0  0  0  0  0  0  0  0  0  0  0  0
   -3.5564    1.4686    1.3720 H   0  0  0  0  0  0  0  0  0  0  0  0
   -1.3267    0.3347    1.9735 H   0  0  0  0  0  0  0  0  0  0  0  0
   -1.4339   -0.5528   -1.5903 H   0  0  0  0  0  0  0  0  0  0  0  0
   -2.8096    0.5518   -1.3200 H   0  0  0  0  0  0  0  0  0  0  0  0
   -2.9464   -2.5035   -1.2264 H   0  0  0  0  0  0  0  0  0  0  0  0
   -4.3022   -1.4128   -0.9633 H   0  0  0  0  0  0  0  0  0  0  0  0
   -3.5266   -1.4816   -2.5635 H   0  0  0  0  0  0  0  0  0  0  0  0
    2.8691    1.7542   -1.0148 H   0  0  0  0  0  0  0  0  0  0  0  0
    6.2024   -0.6101   -1.4155 H   0  0  0  0  0  0  0  0  0  0  0  0
    1.4892   -2.5359    0.4560 H   0  0  0  0  0  0  0  0  0  0  0  0
    2.8770   -3.4966    0.3153 H   0  0  0  0  0  0  0  0  0  0  0  0
  1  2  1  0
  2  3  1  0
  3  4  1  0
  4  5  1  0
  5  6  1  0
  6  7  1  0
  4  8  1  0
  8  9  3  0
  9 10  1  0
 10 11  2  0
 11 12  1  0
 12 13  2  0
 13 14  1  0
 14 15  1  0
 14 16  2  0
 16 17  1  0
 16 10  1  0
  1 18  1  0
  1 19  1  0
  1 20  1  0
  2 21  1  0
  2 22  1  0
  4 23  1  0
  6 24  1  0
  6 25  1  0
  7 26  1  0
  7 27  1  0
  7 28  1  0
 11 29  1  0
 13 30  1  0
 17 31  1  0
 17 32  1  0
M  END
>  <Unnamed: 0>  (21) 
79

>  <ID>  (21) 
TRAIN_0079

>  <Canonical_Smiles>  (21) 
CCOC(OCC)C#Cc1cncc(I)c1N

>  <Inhibition>  (21) 
71.2

>  <TDC_conf_true_inhibitor>  (21) 
1

>  <TDC_conf_non_inhibitor>  (21) 
0

>  <split>  (21) 
1

$$$$
21
     RDKit          3D

 32 31  0  0  0  0  0  0  0  0999 V2000
    0.6828    0.0000    0.0000 Cl  0  0  0  0  0  0  0  0  0  0  0  0
   -4.4080   -1.5445    1.2828 N   0  0  0  0  0  0  0  0  0  0  0  0
   -4.6566   -0.1221    1.1704 C   0  0  0  0  0  0  0  0  0  0  0  0
   -3.9330    0.3784   -0.0712 C   0  0  0  0  0  0  0  0  0  0  0  0
   -2.4914    0.1214    0.0639 N   0  0  0  0  0  0  0  0  0  0  0  0
   -1.6044    0.5007   -0.9705 C   0  0  0  0  0  0  0  0  0  0  0  0
   -2.1374    1.0580   -1.9819 O   0  0  0  0  0  0  0  0  0  0  0  0
   -0.1634    0.2972   -0.9465 C   0  0  0  0  0  0  0  0  0  0  0  0
    0.5879    0.7262   -2.0469 C   0  0  0  0  0  0  0  0  0  0  0  0
    1.9380    0.5239   -2.0001 C   0  0  0  0  0  0  0  0  0  0  0  0
    2.5842   -0.0801   -0.9227 C   0  0  0  0  0  0  0  0  0  0  0  0
    3.9394   -0.2318   -0.9860 O   0  0  0  0  0  0  0  0  0  0  0  0
    4.8332   -0.7686   -0.1064 C   0  0  0  0  0  0  0  0  0  0  0  0
    4.8484   -0.0142    1.1974 C   0  0  0  0  0  0  0  0  0  0  0  0
    5.1980    1.3054    0.9266 F   0  0  0  0  0  0  0  0  0  0  0  0
    3.6329   -0.0752    1.7925 F   0  0  0  0  0  0  0  0  0  0  0  0
    5.8205   -0.5397    2.0446 F   0  0  0  0  0  0  0  0  0  0  0  0
    1.7901   -0.4543    0.0755 N   0  0  0  0  0  0  0  0  0  0  0  0
    0.4588   -0.3017    0.1269 C   0  0  0  0  0  0  0  0  0  0  0  0
   -0.6828    0.0000    0.0000 H   0  0  0  0  0  0  0  0  0  0  0  0
   -3.5352   -1.6440    1.8707 H   0  0  0  0  0  0  0  0  0  0  0  0
   -5.1618   -2.0486    1.7740 H   0  0  0  0  0  0  0  0  0  0  0  0
   -5.7335    0.1194    1.0915 H   0  0  0  0  0  0  0  0  0  0  0  0
   -4.2615    0.4329    2.0661 H   0  0  0  0  0  0  0  0  0  0  0  0
   -4.1040    1.4371   -0.2688 H   0  0  0  0  0  0  0  0  0  0  0  0
   -4.2701   -0.2554   -0.9201 H   0  0  0  0  0  0  0  0  0  0  0  0
   -2.1208   -0.3373    0.9150 H   0  0  0  0  0  0  0  0  0  0  0  0
    0.0816    1.2001   -2.8923 H   0  0  0  0  0  0  0  0  0  0  0  0
    2.5387    0.8566   -2.8583 H   0  0  0  0  0  0  0  0  0  0  0  0
    4.6037   -1.8385    0.1691 H   0  0  0  0  0  0  0  0  0  0  0  0
    5.8680   -0.7940   -0.5535 H   0  0  0  0  0  0  0  0  0  0  0  0
   -0.1422   -0.6215    0.9584 H   0  0  0  0  0  0  0  0  0  0  0  0
  2  3  1  0
  3  4  1  0
  4  5  1  0
  5  6  1  0
  6  7  2  0
  6  8  1  0
  8  9  2  0
  9 10  1  0
 10 11  2  0
 11 12  1  0
 12 13  1  0
 13 14  1  0
 14 15  1  0
 14 16  1  0
 14 17  1  0
 11 18  1  0
 18 19  2  0
 19  8  1  0
  1 20  1  0
  2 21  1  0
  2 22  1  0
  3 23  1  0
  3 24  1  0
  4 25  1  0
  4 26  1  0
  5 27  1  0
  9 28  1  0
 10 29  1  0
 13 30  1  0
 13 31  1  0
 19 32  1  0
M  END
>  <Unnamed: 0>  (22) 
184

>  <ID>  (22) 
TRAIN_0184

>  <Canonical_Smiles>  (22) 
Cl.NCCNC(=O)c1ccc(OCC(F)(F)F)nc1

>  <Inhibition>  (22) 
0.0

>  <TDC_conf_true_inhibitor>  (22) 
0

>  <TDC_conf_non_inhibitor>  (22) 
1

>  <split>  (22) 
1

$$$$
22
     RDKit          3D

 48 48  0  0  0  0  0  0  0  0999 V2000
   -6.4427    0.2148   -0.1826 C   0  0  0  0  0  0  0  0  0  0  0  0
   -4.9242    0.1510    0.1132 C   0  0  0  0  0  0  0  0  0  0  0  0
   -4.2012   -0.1793   -1.2067 C   0  0  0  0  0  0  0  0  0  0  0  0
   -4.7215   -0.9930    1.1335 C   0  0  0  0  0  0  0  0  0  0  0  0
   -3.3503   -1.1945    1.4603 O   0  0  0  0  0  0  0  0  0  0  0  0
   -4.4846    1.5439    0.6519 C   0  0  0  0  0  0  0  0  0  0  0  0
   -4.9471    1.7110    1.9954 O   0  0  0  0  0  0  0  0  0  0  0  0
   -2.9752    1.8652    0.5398 C   0  0  0  0  0  0  0  0  0  0  0  0
   -2.5466    2.6769   -0.2778 O   0  0  0  0  0  0  0  0  0  0  0  0
   -2.1704    1.1983    1.4302 N   0  0  0  0  0  0  0  0  0  0  0  0
   -0.7245    1.3099    1.3942 C   0  0  0  0  0  0  0  0  0  0  0  0
   -0.1192    0.5398    0.2281 C   0  0  0  0  0  0  0  0  0  0  0  0
    1.3911    0.5892    0.2634 C   0  0  0  0  0  0  0  0  0  0  0  0
    2.0382    1.0345    1.2049 O   0  0  0  0  0  0  0  0  0  0  0  0
    1.9741    0.0461   -0.8616 N   0  0  0  0  0  0  0  0  0  0  0  0
    3.4159   -0.0154   -1.0229 C   0  0  0  0  0  0  0  0  0  0  0  0
    4.0408   -1.1512   -0.2164 C   0  0  0  0  0  0  0  0  0  0  0  0
    5.5340   -1.1771   -0.4006 C   0  0  0  0  0  0  0  0  0  0  0  0
    6.3669   -0.4988    0.4862 C   0  0  0  0  0  0  0  0  0  0  0  0
    7.7415   -0.5275    0.2708 C   0  0  0  0  0  0  0  0  0  0  0  0
    8.2454   -1.2245   -0.8202 C   0  0  0  0  0  0  0  0  0  0  0  0
    7.3478   -1.8653   -1.6567 C   0  0  0  0  0  0  0  0  0  0  0  0
    6.0087   -1.8537   -1.4749 N   0  0  0  0  0  0  0  0  0  0  0  0
   -7.0164    0.4463    0.7218 H   0  0  0  0  0  0  0  0  0  0  0  0
   -6.6697    0.9846   -0.9290 H   0  0  0  0  0  0  0  0  0  0  0  0
   -6.8117   -0.7403   -0.5739 H   0  0  0  0  0  0  0  0  0  0  0  0
   -4.3470    0.6167   -1.9456 H   0  0  0  0  0  0  0  0  0  0  0  0
   -3.1239   -0.3112   -1.0631 H   0  0  0  0  0  0  0  0  0  0  0  0
   -4.5846   -1.1091   -1.6427 H   0  0  0  0  0  0  0  0  0  0  0  0
   -5.2664   -0.8014    2.0644 H   0  0  0  0  0  0  0  0  0  0  0  0
   -5.0999   -1.9362    0.7215 H   0  0  0  0  0  0  0  0  0  0  0  0
   -3.3215   -1.9891    2.0259 H   0  0  0  0  0  0  0  0  0  0  0  0
   -4.9851    2.3238    0.0618 H   0  0  0  0  0  0  0  0  0  0  0  0
   -4.6218    2.5818    2.2898 H   0  0  0  0  0  0  0  0  0  0  0  0
   -2.5680    0.3363    1.8078 H   0  0  0  0  0  0  0  0  0  0  0  0
   -0.3548    0.9271    2.3515 H   0  0  0  0  0  0  0  0  0  0  0  0
   -0.4580    2.3712    1.3300 H   0  0  0  0  0  0  0  0  0  0  0  0
   -0.4296   -0.5112    0.2687 H   0  0  0  0  0  0  0  0  0  0  0  0
   -0.4653    0.9540   -0.7258 H   0  0  0  0  0  0  0  0  0  0  0  0
    1.3884   -0.3293   -1.5970 H   0  0  0  0  0  0  0  0  0  0  0  0
    3.6138   -0.1419   -2.0932 H   0  0  0  0  0  0  0  0  0  0  0  0
    3.8367    0.9507   -0.7192 H   0  0  0  0  0  0  0  0  0  0  0  0
    3.6212   -2.1121   -0.5403 H   0  0  0  0  0  0  0  0  0  0  0  0
    3.7967   -1.0603    0.8489 H   0  0  0  0  0  0  0  0  0  0  0  0
    5.9551    0.0458    1.3307 H   0  0  0  0  0  0  0  0  0  0  0  0
    8.4124   -0.0085    0.9493 H   0  0  0  0  0  0  0  0  0  0  0  0
    9.3109   -1.2663   -1.0149 H   0  0  0  0  0  0  0  0  0  0  0  0
    7.6916   -2.4218   -2.5237 H   0  0  0  0  0  0  0  0  0  0  0  0
  1  2  1  0
  2  3  1  0
  2  4  1  0
  4  5  1  0
  2  6  1  0
  6  7  1  0
  6  8  1  0
  8  9  2  0
  8 10  1  0
 10 11  1  0
 11 12  1  0
 12 13  1  0
 13 14  2  0
 13 15  1  0
 15 16  1  0
 16 17  1  0
 17 18  1  0
 18 19  2  0
 19 20  1  0
 20 21  2  0
 21 22  1  0
 22 23  2  0
 23 18  1  0
  1 24  1  0
  1 25  1  0
  1 26  1  0
  3 27  1  0
  3 28  1  0
  3 29  1  0
  4 30  1  0
  4 31  1  0
  5 32  1  0
  6 33  1  0
  7 34  1  0
 10 35  1  0
 11 36  1  0
 11 37  1  0
 12 38  1  0
 12 39  1  0
 15 40  1  0
 16 41  1  0
 16 42  1  0
 17 43  1  0
 17 44  1  0
 19 45  1  0
 20 46  1  0
 21 47  1  0
 22 48  1  0
M  END
>  <Unnamed: 0>  (23) 
192

>  <ID>  (23) 
TRAIN_0192

>  <Canonical_Smiles>  (23) 
CC(C)(CO)C(O)C(=O)NCCC(=O)NCCc1ccccn1

>  <Inhibition>  (23) 
16.9

>  <TDC_conf_true_inhibitor>  (23) 
0

>  <TDC_conf_non_inhibitor>  (23) 
1

>  <split>  (23) 
1

$$$$
23
     RDKit          3D

 19 19  0  0  0  0  0  0  0  0999 V2000
   -4.2405    0.0202    0.1203 F   0  0  0  0  0  0  0  0  0  0  0  0
   -3.2037   -0.1435    0.9836 C   0  0  0  0  0  0  0  0  0  0  0  0
   -3.6286   -0.9797    1.9671 F   0  0  0  0  0  0  0  0  0  0  0  0
   -3.0000    1.0715    1.5739 F   0  0  0  0  0  0  0  0  0  0  0  0
   -1.9214   -0.6486    0.2853 C   0  0  0  0  0  0  0  0  0  0  0  0
   -1.8735   -1.7227   -0.3120 O   0  0  0  0  0  0  0  0  0  0  0  0
   -0.8488    0.2416    0.4119 N   0  0  0  0  0  0  0  0  0  0  0  0
    0.4709    0.0977   -0.1031 C   0  0  0  0  0  0  0  0  0  0  0  0
    0.8843   -1.0155   -0.8427 C   0  0  0  0  0  0  0  0  0  0  0  0
    2.1942   -1.0931   -1.3186 C   0  0  0  0  0  0  0  0  0  0  0  0
    2.7647   -2.5882   -2.3171 Br  0  0  0  0  0  0  0  0  0  0  0  0
    3.0687   -0.0557   -1.0467 C   0  0  0  0  0  0  0  0  0  0  0  0
    2.7211    1.0409   -0.3379 N   0  0  0  0  0  0  0  0  0  0  0  0
    1.4394    1.0966    0.1168 C   0  0  0  0  0  0  0  0  0  0  0  0
    1.1312    2.2860    0.8629 C   0  0  0  0  0  0  0  0  0  0  0  0
    0.7907    3.2118    1.4768 N   0  0  0  0  0  0  0  0  0  0  0  0
   -1.0599    1.0902    0.9413 H   0  0  0  0  0  0  0  0  0  0  0  0
    0.2131   -1.8383   -1.0658 H   0  0  0  0  0  0  0  0  0  0  0  0
    4.0979   -0.0712   -1.3960 H   0  0  0  0  0  0  0  0  0  0  0  0
  1  2  1  0
  2  3  1  0
  2  4  1  0
  2  5  1  0
  5  6  2  0
  5  7  1  0
  7  8  1  0
  8  9  2  0
  9 10  1  0
 10 11  1  0
 10 12  2  0
 12 13  1  0
 13 14  2  0
 14 15  1  0
 15 16  3  0
 14  8  1  0
  7 17  1  0
  9 18  1  0
 12 19  1  0
M  END
>  <Unnamed: 0>  (24) 
371

>  <ID>  (24) 
TRAIN_0371

>  <Canonical_Smiles>  (24) 
FC(F)(F)C(=O)Nc1cc(Br)cnc1C#N

>  <Inhibition>  (24) 
25.8

>  <TDC_conf_true_inhibitor>  (24) 
0

>  <TDC_conf_non_inhibitor>  (24) 
1

>  <split>  (24) 
1

$$$$
24
     RDKit          3D

 31 31  0  0  0  0  0  0  0  0999 V2000
   -3.7349    1.3683   -0.7611 C   0  0  0  0  0  0  0  0  0  0  0  0
   -3.1357    0.1705   -1.4714 C   0  0  0  0  0  0  0  0  0  0  0  0
   -2.0657   -0.3362   -0.6645 O   0  0  0  0  0  0  0  0  0  0  0  0
   -1.4012   -1.3898   -1.2136 C   0  0  0  0  0  0  0  0  0  0  0  0
   -1.6905   -1.9374   -2.2729 O   0  0  0  0  0  0  0  0  0  0  0  0
   -0.2621   -1.8784   -0.3049 C   0  0  1  0  0  0  0  0  0  0  0  0
    0.5928   -2.8328   -0.9329 O   0  0  0  0  0  0  0  0  0  0  0  0
    0.5964   -0.7674    0.2682 C   0  0  0  0  0  0  0  0  0  0  0  0
    0.6632   -0.5524    1.6514 C   0  0  0  0  0  0  0  0  0  0  0  0
   -0.0824   -1.3978    2.6454 C   0  0  0  0  0  0  0  0  0  0  0  0
    1.4016    0.4371    2.2036 N   0  0  0  0  0  0  0  0  0  0  0  0
    2.1175    1.2346    1.3840 C   0  0  0  0  0  0  0  0  0  0  0  0
    2.9974    2.4388    2.2508 Cl  0  0  0  0  0  0  0  0  0  0  0  0
    2.1486    1.1238    0.0004 C   0  0  0  0  0  0  0  0  0  0  0  0
    2.9616    2.0380   -0.8176 C   0  0  0  0  0  0  0  0  0  0  0  0
    4.1445    1.6781   -1.3312 C   0  0  0  0  0  0  0  0  0  0  0  0
    1.3578    0.0995   -0.5508 C   0  0  0  0  0  0  0  0  0  0  0  0
    1.2984   -0.0721   -2.2859 Cl  0  0  0  0  0  0  0  0  0  0  0  0
   -2.9765    2.1428   -0.6055 H   0  0  0  0  0  0  0  0  0  0  0  0
   -4.5601    1.7927   -1.3396 H   0  0  0  0  0  0  0  0  0  0  0  0
   -4.1063    1.0834    0.2289 H   0  0  0  0  0  0  0  0  0  0  0  0
   -2.7499    0.4759   -2.4506 H   0  0  0  0  0  0  0  0  0  0  0  0
   -3.8988   -0.6052   -1.5997 H   0  0  0  0  0  0  0  0  0  0  0  0
   -0.7729   -2.4382    0.4836 H   0  0  0  0  0  0  0  0  0  0  0  0
    0.1117   -3.1528   -1.7222 H   0  0  0  0  0  0  0  0  0  0  0  0
   -1.1614   -1.3220    2.4792 H   0  0  0  0  0  0  0  0  0  0  0  0
    0.1180   -1.0630    3.6690 H   0  0  0  0  0  0  0  0  0  0  0  0
    0.2337   -2.4430    2.5731 H   0  0  0  0  0  0  0  0  0  0  0  0
    2.5663    3.0388   -0.9701 H   0  0  0  0  0  0  0  0  0  0  0  0
    4.7253    2.3796   -1.9225 H   0  0  0  0  0  0  0  0  0  0  0  0
    4.5635    0.6868   -1.1834 H   0  0  0  0  0  0  0  0  0  0  0  0
  1  2  1  0
  2  3  1  0
  3  4  1  0
  4  5  2  0
  4  6  1  0
  6  7  1  0
  6  8  1  0
  8  9  2  0
  9 10  1  0
  9 11  1  0
 11 12  2  0
 12 13  1  0
 12 14  1  0
 14 15  1  0
 15 16  2  0
 14 17  2  0
 17 18  1  0
 17  8  1  0
  1 19  1  0
  1 20  1  0
  1 21  1  0
  2 22  1  0
  2 23  1  0
  6 24  1  1
  7 25  1  0
 10 26  1  0
 10 27  1  0
 10 28  1  0
 15 29  1  0
 16 30  1  0
 16 31  1  0
M  END
>  <Unnamed: 0>  (25) 
441

>  <ID>  (25) 
TRAIN_0441

>  <Canonical_Smiles>  (25) 
CCOC(=O)[C@@H](O)c1c(C)nc(Cl)c(C=C)c1Cl

>  <Inhibition>  (25) 
0.0

>  <TDC_conf_true_inhibitor>  (25) 
0

>  <TDC_conf_non_inhibitor>  (25) 
1

>  <split>  (25) 
1

$$$$
25
     RDKit          3D

 37 37  0  0  0  0  0  0  0  0999 V2000
    1.8820    2.8103    1.3939 C   0  0  0  0  0  0  0  0  0  0  0  0
    2.7765    1.7220    1.2567 O   0  0  0  0  0  0  0  0  0  0  0  0
    2.2380    0.4339    0.4453 P   0  0  0  0  0  5  0  0  0  0  0  0
    1.6018    0.7500   -0.8746 O   0  0  0  0  0  0  0  0  0  0  0  0
    1.2554   -0.4980    1.6258 C   0  0  0  0  0  0  0  0  0  0  0  0
    0.4264   -1.6142    1.0394 C   0  0  0  0  0  0  0  0  0  0  0  0
    0.8572   -2.9399    1.1968 C   0  0  0  0  0  0  0  0  0  0  0  0
    0.1352   -3.9819    0.6258 C   0  0  0  0  0  0  0  0  0  0  0  0
   -1.0013   -3.6722   -0.0956 C   0  0  0  0  0  0  0  0  0  0  0  0
   -1.4509   -2.4150   -0.2763 N   0  0  0  0  0  0  0  0  0  0  0  0
   -0.7346   -1.3962    0.2811 C   0  0  0  0  0  0  0  0  0  0  0  0
   -1.2904   -0.0136    0.0617 C   0  0  0  0  0  0  0  0  0  0  0  0
   -0.9979    0.9622    0.7388 O   0  0  0  0  0  0  0  0  0  0  0  0
   -2.1518   -0.0159   -0.9890 O   0  0  0  0  0  0  0  0  0  0  0  0
   -2.7249    1.2525   -1.3475 C   0  0  0  0  0  0  0  0  0  0  0  0
   -3.1032    1.1748   -2.8214 C   0  0  0  0  0  0  0  0  0  0  0  0
   -3.9551    1.5176   -0.4873 C   0  0  0  0  0  0  0  0  0  0  0  0
    3.5799   -0.4591    0.3024 O   0  0  0  0  0  0  0  0  0  0  0  0
    4.5308   -0.0220   -0.6490 C   0  0  0  0  0  0  0  0  0  0  0  0
    2.4041    3.6292    1.8952 H   0  0  0  0  0  0  0  0  0  0  0  0
    1.0216    2.5188    2.0006 H   0  0  0  0  0  0  0  0  0  0  0  0
    1.5482    3.1550    0.4116 H   0  0  0  0  0  0  0  0  0  0  0  0
    0.6076    0.1646    2.2071 H   0  0  0  0  0  0  0  0  0  0  0  0
    1.9456   -0.9067    2.3753 H   0  0  0  0  0  0  0  0  0  0  0  0
    1.7626   -3.1683    1.7561 H   0  0  0  0  0  0  0  0  0  0  0  0
    0.4565   -5.0121    0.7363 H   0  0  0  0  0  0  0  0  0  0  0  0
   -1.5986   -4.4499   -0.5636 H   0  0  0  0  0  0  0  0  0  0  0  0
   -1.9894    2.0564   -1.2202 H   0  0  0  0  0  0  0  0  0  0  0  0
   -3.5493    2.1119   -3.1681 H   0  0  0  0  0  0  0  0  0  0  0  0
   -2.2175    0.9637   -3.4305 H   0  0  0  0  0  0  0  0  0  0  0  0
   -3.8115    0.3589   -3.0038 H   0  0  0  0  0  0  0  0  0  0  0  0
   -3.6853    1.5762    0.5721 H   0  0  0  0  0  0  0  0  0  0  0  0
   -4.6812    0.7025   -0.5810 H   0  0  0  0  0  0  0  0  0  0  0  0
   -4.4417    2.4559   -0.7706 H   0  0  0  0  0  0  0  0  0  0  0  0
    4.1211   -0.1176   -1.6579 H   0  0  0  0  0  0  0  0  0  0  0  0
    5.4212   -0.6505   -0.5684 H   0  0  0  0  0  0  0  0  0  0  0  0
    4.8127    1.0169   -0.4578 H   0  0  0  0  0  0  0  0  0  0  0  0
  1  2  1  0
  2  3  1  0
  3  4  2  0
  3  5  1  0
  5  6  1  0
  6  7  2  0
  7  8  1  0
  8  9  2  0
  9 10  1  0
 10 11  2  0
 11 12  1  0
 12 13  2  0
 12 14  1  0
 14 15  1  0
 15 16  1  0
 15 17  1  0
  3 18  1  0
 18 19  1  0
 11  6  1  0
  1 20  1  0
  1 21  1  0
  1 22  1  0
  5 23  1  0
  5 24  1  0
  7 25  1  0
  8 26  1  0
  9 27  1  0
 15 28  1  0
 16 29  1  0
 16 30  1  0
 16 31  1  0
 17 32  1  0
 17 33  1  0
 17 34  1  0
 19 35  1  0
 19 36  1  0
 19 37  1  0
M  END
>  <Unnamed: 0>  (26) 
630

>  <ID>  (26) 
TRAIN_0630

>  <Canonical_Smiles>  (26) 
COP(=O)(Cc1cccnc1C(=O)OC(C)C)OC

>  <Inhibition>  (26) 
6.56

>  <TDC_conf_true_inhibitor>  (26) 
0

>  <TDC_conf_non_inhibitor>  (26) 
1

>  <split>  (26) 
1

$$$$
26
     RDKit          3D

 49 49  0  0  0  0  0  0  0  0999 V2000
    1.0506    4.1532   -0.7057 C   0  0  0  0  0  0  0  0  0  0  0  0
   -0.1241    3.8724    0.2121 C   0  0  0  0  0  0  0  0  0  0  0  0
   -0.0014    2.5597    0.7762 O   0  0  0  0  0  0  0  0  0  0  0  0
    0.7325    2.4637    1.9150 C   0  0  0  0  0  0  0  0  0  0  0  0
    1.2213    3.4175    2.5131 O   0  0  0  0  0  0  0  0  0  0  0  0
    0.8216    1.0336    2.4451 C   0  0  0  0  0  0  0  0  0  0  0  0
    0.3640   -0.0207    1.5346 N   0  0  0  0  0  0  0  0  0  0  0  0
    1.2173   -0.2984    0.4618 C   0  0  0  0  0  0  0  0  0  0  0  0
    2.1575    0.4281    0.1596 O   0  0  0  0  0  0  0  0  0  0  0  0
    0.9470   -1.4850   -0.1405 O   0  0  0  0  0  0  0  0  0  0  0  0
    1.7815   -1.9972   -1.2124 C   0  0  0  0  0  0  0  0  0  0  0  0
    1.1553   -3.3495   -1.5860 C   0  0  0  0  0  0  0  0  0  0  0  0
    3.2155   -2.2445   -0.7295 C   0  0  0  0  0  0  0  0  0  0  0  0
    1.7412   -1.0814   -2.4395 C   0  0  0  0  0  0  0  0  0  0  0  0
   -0.7519   -0.8515    1.8862 C   0  0  0  0  0  0  0  0  0  0  0  0
   -0.8982   -1.2573    3.2242 C   0  0  0  0  0  0  0  0  0  0  0  0
   -1.9237   -2.1225    3.6047 C   0  0  0  0  0  0  0  0  0  0  0  0
   -2.7938   -2.5761    2.6356 C   0  0  0  0  0  0  0  0  0  0  0  0
   -2.7132   -2.2122    1.3439 N   0  0  0  0  0  0  0  0  0  0  0  0
   -1.7101   -1.3523    0.9810 C   0  0  0  0  0  0  0  0  0  0  0  0
   -1.8161   -0.9328   -0.4525 C   0  0  0  0  0  0  0  0  0  0  0  0
   -2.1362   -1.6741   -1.3696 O   0  0  0  0  0  0  0  0  0  0  0  0
   -1.5874    0.4018   -0.5582 O   0  0  0  0  0  0  0  0  0  0  0  0
   -1.7356    0.9590   -1.8715 C   0  0  0  0  0  0  0  0  0  0  0  0
   -3.1495    1.4773   -2.0471 C   0  0  0  0  0  0  0  0  0  0  0  0
    0.9396    5.1266   -1.1916 H   0  0  0  0  0  0  0  0  0  0  0  0
    1.9933    4.1453   -0.1493 H   0  0  0  0  0  0  0  0  0  0  0  0
    1.1300    3.3797   -1.4766 H   0  0  0  0  0  0  0  0  0  0  0  0
   -0.2175    4.6374    0.9912 H   0  0  0  0  0  0  0  0  0  0  0  0
   -1.0546    3.8881   -0.3646 H   0  0  0  0  0  0  0  0  0  0  0  0
    0.2312    1.0372    3.3655 H   0  0  0  0  0  0  0  0  0  0  0  0
    1.8705    0.8356    2.6952 H   0  0  0  0  0  0  0  0  0  0  0  0
    1.7126   -3.8488   -2.3856 H   0  0  0  0  0  0  0  0  0  0  0  0
    1.1226   -4.0170   -0.7169 H   0  0  0  0  0  0  0  0  0  0  0  0
    0.1186   -3.2232   -1.9172 H   0  0  0  0  0  0  0  0  0  0  0  0
    3.7455   -1.3102   -0.5224 H   0  0  0  0  0  0  0  0  0  0  0  0
    3.7994   -2.7907   -1.4783 H   0  0  0  0  0  0  0  0  0  0  0  0
    3.2177   -2.8209    0.2025 H   0  0  0  0  0  0  0  0  0  0  0  0
    2.2102   -0.1125   -2.2448 H   0  0  0  0  0  0  0  0  0  0  0  0
    2.2616   -1.5337   -3.2906 H   0  0  0  0  0  0  0  0  0  0  0  0
    0.7078   -0.8753   -2.7364 H   0  0  0  0  0  0  0  0  0  0  0  0
   -0.1846   -0.9613    3.9887 H   0  0  0  0  0  0  0  0  0  0  0  0
   -2.0244   -2.4509    4.6340 H   0  0  0  0  0  0  0  0  0  0  0  0
   -3.6015   -3.2617    2.8774 H   0  0  0  0  0  0  0  0  0  0  0  0
   -1.0235    1.7855   -1.9555 H   0  0  0  0  0  0  0  0  0  0  0  0
   -1.4798    0.2368   -2.6545 H   0  0  0  0  0  0  0  0  0  0  0  0
   -3.2708    1.9527   -3.0244 H   0  0  0  0  0  0  0  0  0  0  0  0
   -3.3913    2.2066   -1.2669 H   0  0  0  0  0  0  0  0  0  0  0  0
   -3.8766    0.6636   -1.9594 H   0  0  0  0  0  0  0  0  0  0  0  0
  1  2  1  0
  2  3  1  0
  3  4  1  0
  4  5  2  0
  4  6  1  0
  6  7  1  0
  7  8  1  0
  8  9  2  0
  8 10  1  0
 10 11  1  0
 11 12  1  0
 11 13  1  0
 11 14  1  0
  7 15  1  0
 15 16  2  0
 16 17  1  0
 17 18  2  0
 18 19  1  0
 19 20  2  0
 20 21  1  0
 21 22  2  0
 21 23  1  0
 23 24  1  0
 24 25  1  0
 20 15  1  0
  1 26  1  0
  1 27  1  0
  1 28  1  0
  2 29  1  0
  2 30  1  0
  6 31  1  0
  6 32  1  0
 12 33  1  0
 12 34  1  0
 12 35  1  0
 13 36  1  0
 13 37  1  0
 13 38  1  0
 14 39  1  0
 14 40  1  0
 14 41  1  0
 16 42  1  0
 17 43  1  0
 18 44  1  0
 24 45  1  0
 24 46  1  0
 25 47  1  0
 25 48  1  0
 25 49  1  0
M  END
>  <Unnamed: 0>  (27) 
645

>  <ID>  (27) 
TRAIN_0645

>  <Canonical_Smiles>  (27) 
CCOC(=O)CN(C(=O)OC(C)(C)C)c1cccnc1C(=O)OCC

>  <Inhibition>  (27) 
31.4

>  <TDC_conf_true_inhibitor>  (27) 
0

>  <TDC_conf_non_inhibitor>  (27) 
1

>  <split>  (27) 
1

$$$$
27
     RDKit          3D

 52 54  0  0  0  0  0  0  0  0999 V2000
   -5.8154    1.7202    2.3482 C   0  0  0  0  0  0  0  0  0  0  0  0
   -5.7842    0.3629    1.6413 C   0  0  0  0  0  0  0  0  0  0  0  0
   -7.1560   -0.3162    1.7036 C   0  0  0  0  0  0  0  0  0  0  0  0
   -5.2788    0.5046    0.2120 C   0  0  0  0  0  0  0  0  0  0  0  0
   -6.0517    1.1772   -0.7508 C   0  0  0  0  0  0  0  0  0  0  0  0
   -5.5974    1.3335   -2.0622 C   0  0  0  0  0  0  0  0  0  0  0  0
   -4.3548    0.8256   -2.4446 C   0  0  0  0  0  0  0  0  0  0  0  0
   -3.8377    1.0421   -3.8361 C   0  0  0  0  0  0  0  0  0  0  0  0
   -3.5663    0.1735   -1.4899 C   0  0  0  0  0  0  0  0  0  0  0  0
   -4.0309   -0.0109   -0.1804 C   0  0  0  0  0  0  0  0  0  0  0  0
   -3.2622   -0.6173    0.7800 O   0  0  0  0  0  0  0  0  0  0  0  0
   -2.6418   -1.8463    0.3784 C   0  0  0  0  0  0  0  0  0  0  0  0
   -1.1746   -1.6175    0.2261 C   0  0  0  0  0  0  0  0  0  0  0  0
   -0.5003   -1.8017   -0.8916 N   0  0  0  0  0  0  0  0  0  0  0  0
    0.8419   -1.5048   -0.7453 N   0  0  0  0  0  0  0  0  0  0  0  0
    1.1261   -1.1191    0.4734 C   0  0  0  0  0  0  0  0  0  0  0  0
    2.3082   -0.7201    1.0343 N   0  0  0  0  0  0  0  0  0  0  0  0
    3.5017   -0.7673    0.3421 C   0  0  0  0  0  0  0  0  0  0  0  0
    3.6342   -1.2118   -0.7894 O   0  0  0  0  0  0  0  0  0  0  0  0
    4.5289   -0.2406    1.1165 N   0  0  0  0  0  0  0  0  0  0  0  0
    5.9033   -0.1826    0.8001 C   0  0  0  0  0  0  0  0  0  0  0  0
    6.4738   -0.7785   -0.3241 C   0  0  0  0  0  0  0  0  0  0  0  0
    7.8504   -0.6804   -0.5599 C   0  0  0  0  0  0  0  0  0  0  0  0
    8.6814    0.0035    0.3322 C   0  0  0  0  0  0  0  0  0  0  0  0
   10.1494    0.1337    0.0553 C   0  0  0  0  0  0  0  0  0  0  0  0
    8.1104    0.6098    1.4538 C   0  0  0  0  0  0  0  0  0  0  0  0
    6.7350    0.5110    1.6884 C   0  0  0  0  0  0  0  0  0  0  0  0
   -0.2016   -1.0934    1.5479 S   0  0  0  0  0  0  0  0  0  0  0  0
   -6.5245    2.4102    1.8778 H   0  0  0  0  0  0  0  0  0  0  0  0
   -6.1106    1.6025    3.3963 H   0  0  0  0  0  0  0  0  0  0  0  0
   -4.8272    2.1932    2.3297 H   0  0  0  0  0  0  0  0  0  0  0  0
   -5.1014   -0.2787    2.2106 H   0  0  0  0  0  0  0  0  0  0  0  0
   -7.4489   -0.4944    2.7444 H   0  0  0  0  0  0  0  0  0  0  0  0
   -7.1368   -1.2841    1.1907 H   0  0  0  0  0  0  0  0  0  0  0  0
   -7.9408    0.2924    1.2420 H   0  0  0  0  0  0  0  0  0  0  0  0
   -7.0177    1.6009   -0.4845 H   0  0  0  0  0  0  0  0  0  0  0  0
   -6.2169    1.8681   -2.7794 H   0  0  0  0  0  0  0  0  0  0  0  0
   -3.1807    0.2209   -4.1407 H   0  0  0  0  0  0  0  0  0  0  0  0
   -4.6610    1.0828   -4.5567 H   0  0  0  0  0  0  0  0  0  0  0  0
   -3.2778    1.9809   -3.8852 H   0  0  0  0  0  0  0  0  0  0  0  0
   -2.5758   -0.1679   -1.7799 H   0  0  0  0  0  0  0  0  0  0  0  0
   -3.0811   -2.2713   -0.5329 H   0  0  0  0  0  0  0  0  0  0  0  0
   -2.8177   -2.5753    1.1780 H   0  0  0  0  0  0  0  0  0  0  0  0
    2.2887   -0.4883    2.0113 H   0  0  0  0  0  0  0  0  0  0  0  0
    4.2548    0.2515    1.9519 H   0  0  0  0  0  0  0  0  0  0  0  0
    5.8778   -1.3316   -1.0434 H   0  0  0  0  0  0  0  0  0  0  0  0
    8.2648   -1.1477   -1.4508 H   0  0  0  0  0  0  0  0  0  0  0  0
   10.3366    1.0141   -0.5671 H   0  0  0  0  0  0  0  0  0  0  0  0
   10.5284   -0.7538   -0.4625 H   0  0  0  0  0  0  0  0  0  0  0  0
   10.7162    0.2321    0.9869 H   0  0  0  0  0  0  0  0  0  0  0  0
    8.7321    1.1634    2.1538 H   0  0  0  0  0  0  0  0  0  0  0  0
    6.3283    0.9911    2.5743 H   0  0  0  0  0  0  0  0  0  0  0  0
  1  2  1  0
  2  3  1  0
  2  4  1  0
  4  5  2  0
  5  6  1  0
  6  7  2  0
  7  8  1  0
  7  9  1  0
  9 10  2  0
 10 11  1  0
 11 12  1  0
 12 13  1  0
 13 14  2  0
 14 15  1  0
 15 16  2  0
 16 17  1  0
 17 18  1  0
 18 19  2  0
 18 20  1  0
 20 21  1  0
 21 22  2  0
 22 23  1  0
 23 24  2  0
 24 25  1  0
 24 26  1  0
 26 27  2  0
 16 28  1  0
 10  4  1  0
 28 13  1  0
 27 21  1  0
  1 29  1  0
  1 30  1  0
  1 31  1  0
  2 32  1  0
  3 33  1  0
  3 34  1  0
  3 35  1  0
  5 36  1  0
  6 37  1  0
  8 38  1  0
  8 39  1  0
  8 40  1  0
  9 41  1  0
 12 42  1  0
 12 43  1  0
 17 44  1  0
 20 45  1  0
 22 46  1  0
 23 47  1  0
 25 48  1  0
 25 49  1  0
 25 50  1  0
 26 51  1  0
 27 52  1  0
M  END
>  <Unnamed: 0>  (28) 
83

>  <ID>  (28) 
TRAIN_0083

>  <Canonical_Smiles>  (28) 
CC(C)c1ccc(C)cc1OCc2nnc(NC(=O)Nc3ccc(C)cc3)s2

>  <Inhibition>  (28) 
26.9

>  <TDC_conf_true_inhibitor>  (28) 
1

>  <TDC_conf_non_inhibitor>  (28) 
0

>  <split>  (28) 
1

$$$$
28
     RDKit          3D

 42 44  0  0  0  0  0  0  0  0999 V2000
    6.0304    0.9394   -0.5414 C   0  0  0  0  0  0  0  0  0  0  0  0
    5.2609   -0.1169    0.2530 C   0  0  0  0  0  0  0  0  0  0  0  0
    5.7363   -0.1515    1.7063 C   0  0  0  0  0  0  0  0  0  0  0  0
    3.7848    0.0845    0.1577 C   0  0  0  0  0  0  0  0  0  0  0  0
    3.1633    1.1831    0.6088 N   0  0  0  0  0  0  0  0  0  0  0  0
    1.8226    0.9363    0.3151 O   0  0  0  0  0  0  0  0  0  0  0  0
    1.7778   -0.2886   -0.2867 C   0  0  0  0  0  0  0  0  0  0  0  0
    2.9569   -0.8547   -0.4052 N   0  0  0  0  0  0  0  0  0  0  0  0
    0.4422   -0.7990   -0.7070 C   0  0  0  0  0  0  0  0  0  0  0  0
   -0.2715    0.1841   -1.6495 C   0  0  0  0  0  0  0  0  0  0  0  0
   -1.4134    0.8995   -0.9340 C   0  0  0  0  0  0  0  0  0  0  0  0
   -2.4071   -0.1002   -0.5062 N   0  0  0  0  0  0  0  0  0  0  0  0
   -1.8770   -1.3054    0.1614 C   0  0  0  0  0  0  0  0  0  0  0  0
   -0.4037   -1.1564    0.5239 C   0  0  0  0  0  0  0  0  0  0  0  0
   -3.5286    0.4554    0.1286 C   0  0  0  0  0  0  0  0  0  0  0  0
   -3.3609    1.6038    0.8129 N   0  0  0  0  0  0  0  0  0  0  0  0
   -4.4345    2.1097    1.4290 C   0  0  0  0  0  0  0  0  0  0  0  0
   -4.2019    3.5559    2.3015 Cl  0  0  0  0  0  0  0  0  0  0  0  0
   -5.6662    1.5971    1.4357 N   0  0  0  0  0  0  0  0  0  0  0  0
   -5.8043    0.4647    0.7275 C   0  0  0  0  0  0  0  0  0  0  0  0
   -4.7722   -0.1533    0.0440 C   0  0  0  0  0  0  0  0  0  0  0  0
   -5.0338   -1.3883   -0.7435 C   0  0  0  0  0  0  0  0  0  0  0  0
   -6.3673   -1.6661   -0.8587 F   0  0  0  0  0  0  0  0  0  0  0  0
   -4.4929   -2.5042   -0.1767 F   0  0  0  0  0  0  0  0  0  0  0  0
   -4.5722   -1.3470   -2.0231 F   0  0  0  0  0  0  0  0  0  0  0  0
    5.7113    0.9498   -1.5896 H   0  0  0  0  0  0  0  0  0  0  0  0
    7.1061    0.7343   -0.5196 H   0  0  0  0  0  0  0  0  0  0  0  0
    5.8712    1.9449   -0.1358 H   0  0  0  0  0  0  0  0  0  0  0  0
    5.4936   -1.0941   -0.1908 H   0  0  0  0  0  0  0  0  0  0  0  0
    5.2059   -0.9250    2.2730 H   0  0  0  0  0  0  0  0  0  0  0  0
    5.5641    0.8063    2.2102 H   0  0  0  0  0  0  0  0  0  0  0  0
    6.8080   -0.3716    1.7591 H   0  0  0  0  0  0  0  0  0  0  0  0
    0.6196   -1.7214   -1.2773 H   0  0  0  0  0  0  0  0  0  0  0  0
   -0.6882   -0.3801   -2.4951 H   0  0  0  0  0  0  0  0  0  0  0  0
    0.4219    0.9167   -2.0797 H   0  0  0  0  0  0  0  0  0  0  0  0
   -1.0176    1.4771   -0.0886 H   0  0  0  0  0  0  0  0  0  0  0  0
   -1.8801    1.6044   -1.6335 H   0  0  0  0  0  0  0  0  0  0  0  0
   -2.4360   -1.5529    1.0731 H   0  0  0  0  0  0  0  0  0  0  0  0
   -1.9938   -2.1521   -0.5257 H   0  0  0  0  0  0  0  0  0  0  0  0
   -0.3051   -0.3882    1.3030 H   0  0  0  0  0  0  0  0  0  0  0  0
   -0.0341   -2.0882    0.9702 H   0  0  0  0  0  0  0  0  0  0  0  0
   -6.8145    0.0583    0.7216 H   0  0  0  0  0  0  0  0  0  0  0  0
  1  2  1  0
  2  3  1  0
  2  4  1  0
  4  5  2  0
  5  6  1  0
  6  7  1  0
  7  8  2  0
  7  9  1  0
  9 10  1  0
 10 11  1  0
 11 12  1  0
 12 13  1  0
 13 14  1  0
 12 15  1  0
 15 16  2  0
 16 17  1  0
 17 18  1  0
 17 19  2  0
 19 20  1  0
 20 21  2  0
 21 22  1  0
 22 23  1  0
 22 24  1  0
 22 25  1  0
  8  4  1  0
 14  9  1  0
 21 15  1  0
  1 26  1  0
  1 27  1  0
  1 28  1  0
  2 29  1  0
  3 30  1  0
  3 31  1  0
  3 32  1  0
  9 33  1  0
 10 34  1  0
 10 35  1  0
 11 36  1  0
 11 37  1  0
 13 38  1  0
 13 39  1  0
 14 40  1  0
 14 41  1  0
 20 42  1  0
M  END
>  <Unnamed: 0>  (29) 
90

>  <ID>  (29) 
TRAIN_0090

>  <Canonical_Smiles>  (29) 
CC(C)c1noc(n1)C2CCN(CC2)c3nc(Cl)ncc3C(F)(F)F

>  <Inhibition>  (29) 
0.0

>  <TDC_conf_true_inhibitor>  (29) 
0

>  <TDC_conf_non_inhibitor>  (29) 
1

>  <split>  (29) 
1

$$$$
29
     RDKit          3D

 43 45  0  0  0  0  0  0  0  0999 V2000
   -4.9919    0.1225   -1.6826 C   0  0  0  0  0  0  0  0  0  0  0  0
   -4.3431   -0.0750   -0.3037 C   0  0  0  0  0  0  0  0  0  0  0  0
   -4.9974    0.8943    0.6868 C   0  0  0  0  0  0  0  0  0  0  0  0
   -4.5259   -1.5374    0.1167 C   0  0  0  0  0  0  0  0  0  0  0  0
   -2.9431    0.2448   -0.5097 O   0  0  0  0  0  0  0  0  0  0  0  0
   -2.0506    0.1740    0.5102 C   0  0  0  0  0  0  0  0  0  0  0  0
   -2.3326   -0.1427    1.6582 O   0  0  0  0  0  0  0  0  0  0  0  0
   -0.7713    0.5146    0.1067 N   0  0  0  0  0  0  0  0  0  0  0  0
   -0.4005    0.6537   -1.3020 C   0  0  0  0  0  0  0  0  0  0  0  0
    0.7954    1.5951   -1.4686 C   0  0  0  0  0  0  0  0  0  0  0  0
    1.8911    1.2164   -0.6213 O   0  0  0  0  0  0  0  0  0  0  0  0
    1.4974    1.2314    0.7660 C   0  0  2  0  0  0  0  0  0  0  0  0
    2.7222    0.9798    1.6497 C   0  0  0  0  0  0  0  0  0  0  0  0
    3.3378   -0.3115    1.4582 N   0  0  0  0  0  0  0  0  0  0  0  0
    2.8816   -1.3941    2.1291 N   0  0  0  0  0  0  0  0  0  0  0  0
    3.6325   -2.4349    1.7700 N   0  0  0  0  0  0  0  0  0  0  0  0
    4.5840   -1.9843    0.9010 C   0  0  0  0  0  0  0  0  0  0  0  0
    5.5727   -2.6939    0.2963 N   0  0  0  0  0  0  0  0  0  0  0  0
    6.3544   -1.9117   -0.4971 C   0  0  0  0  0  0  0  0  0  0  0  0
    6.1805   -0.5373   -0.6764 C   0  0  0  0  0  0  0  0  0  0  0  0
    7.3739    0.3946   -1.8191 Br  0  0  0  0  0  0  0  0  0  0  0  0
    5.1998    0.1818   -0.0741 N   0  0  0  0  0  0  0  0  0  0  0  0
    4.4292   -0.6173    0.6982 C   0  0  0  0  0  0  0  0  0  0  0  0
    0.3445    0.2433    1.0125 C   0  0  0  0  0  0  0  0  0  0  0  0
   -6.0658   -0.0907   -1.6618 H   0  0  0  0  0  0  0  0  0  0  0  0
   -4.8497    1.1504   -2.0365 H   0  0  0  0  0  0  0  0  0  0  0  0
   -4.5239   -0.5287   -2.4302 H   0  0  0  0  0  0  0  0  0  0  0  0
   -4.7790    1.9333    0.4157 H   0  0  0  0  0  0  0  0  0  0  0  0
   -6.0845    0.7624    0.7140 H   0  0  0  0  0  0  0  0  0  0  0  0
   -4.6260    0.7515    1.7060 H   0  0  0  0  0  0  0  0  0  0  0  0
   -3.9766   -2.2065   -0.5553 H   0  0  0  0  0  0  0  0  0  0  0  0
   -4.1453   -1.7244    1.1253 H   0  0  0  0  0  0  0  0  0  0  0  0
   -5.5827   -1.8253    0.1078 H   0  0  0  0  0  0  0  0  0  0  0  0
   -0.1402   -0.3509   -1.6558 H   0  0  0  0  0  0  0  0  0  0  0  0
   -1.2417    1.0164   -1.8999 H   0  0  0  0  0  0  0  0  0  0  0  0
    0.5132    2.6292   -1.2378 H   0  0  0  0  0  0  0  0  0  0  0  0
    1.1494    1.5704   -2.5040 H   0  0  0  0  0  0  0  0  0  0  0  0
    1.1429    2.2467    0.9919 H   0  0  0  0  0  0  0  0  0  0  0  0
    3.4903    1.7335    1.4398 H   0  0  0  0  0  0  0  0  0  0  0  0
    2.4584    1.0644    2.7103 H   0  0  0  0  0  0  0  0  0  0  0  0
    7.1559   -2.4441   -1.0012 H   0  0  0  0  0  0  0  0  0  0  0  0
    0.6498   -0.7867    0.7980 H   0  0  0  0  0  0  0  0  0  0  0  0
    0.0150    0.2927    2.0556 H   0  0  0  0  0  0  0  0  0  0  0  0
  1  2  1  0
  2  3  1  0
  2  4  1  0
  2  5  1  0
  5  6  1  0
  6  7  2  0
  6  8  1  0
  8  9  1  0
  9 10  1  0
 10 11  1  0
 11 12  1  0
 12 13  1  0
 13 14  1  0
 14 15  1  0
 15 16  2  0
 16 17  1  0
 17 18  2  0
 18 19  1  0
 19 20  2  0
 20 21  1  0
 20 22  1  0
 22 23  2  0
 12 24  1  0
 24  8  1  0
 23 14  1  0
 23 17  1  0
  1 25  1  0
  1 26  1  0
  1 27  1  0
  3 28  1  0
  3 29  1  0
  3 30  1  0
  4 31  1  0
  4 32  1  0
  4 33  1  0
  9 34  1  0
  9 35  1  0
 10 36  1  0
 10 37  1  0
 12 38  1  1
 13 39  1  0
 13 40  1  0
 19 41  1  0
 24 42  1  0
 24 43  1  0
M  END
>  <Unnamed: 0>  (30) 
93

>  <ID>  (30) 
TRAIN_0093

>  <Canonical_Smiles>  (30) 
CC(C)(C)OC(=O)N1CCO[C@H](Cn2nnc3ncc(Br)nc23)C1

>  <Inhibition>  (30) 
14.9

>  <TDC_conf_true_inhibitor>  (30) 
0

>  <TDC_conf_non_inhibitor>  (30) 
1

>  <split>  (30) 
1

$$$$
30
     RDKit          3D

 41 43  0  0  0  0  0  0  0  0999 V2000
   -2.5082   -0.8657   -2.1348 C   0  0  0  0  0  0  0  0  0  0  0  0
   -2.6839   -1.0010   -0.6150 C   0  0  0  0  0  0  0  0  0  0  0  0
   -2.6230   -2.5032   -0.2669 C   0  0  0  0  0  0  0  0  0  0  0  0
   -1.5010   -0.4543    0.0122 O   0  0  0  0  0  0  0  0  0  0  0  0
   -1.4505    0.8898    0.2626 C   0  0  0  0  0  0  0  0  0  0  0  0
   -2.5831    1.7107    0.2754 C   0  0  0  0  0  0  0  0  0  0  0  0
   -2.4283    3.0567    0.6338 C   0  0  0  0  0  0  0  0  0  0  0  0
   -1.1681    3.5233    0.9613 C   0  0  0  0  0  0  0  0  0  0  0  0
   -0.0632    2.7529    0.9584 N   0  0  0  0  0  0  0  0  0  0  0  0
   -0.2044    1.4483    0.5955 C   0  0  0  0  0  0  0  0  0  0  0  0
    1.0518    0.6825    0.6062 C   0  0  0  0  0  0  0  0  0  0  0  0
    1.8781    0.6850    1.7467 C   0  0  0  0  0  0  0  0  0  0  0  0
    3.0767   -0.0341    1.7743 C   0  0  0  0  0  0  0  0  0  0  0  0
    3.4705   -0.7525    0.6443 C   0  0  0  0  0  0  0  0  0  0  0  0
    2.6727   -0.7766   -0.4983 C   0  0  0  0  0  0  0  0  0  0  0  0
    1.4814   -0.0544   -0.5085 C   0  0  0  0  0  0  0  0  0  0  0  0
    0.7563   -0.0615   -1.6380 F   0  0  0  0  0  0  0  0  0  0  0  0
    4.9846   -1.6784    0.6732 S   0  0  0  0  0  6  0  0  0  0  0  0
    5.2900   -1.9697    2.0608 O   0  0  0  0  0  0  0  0  0  0  0  0
    4.8594   -2.7457   -0.3006 O   0  0  0  0  0  0  0  0  0  0  0  0
    6.1846   -0.5181    0.0734 C   0  0  0  0  0  0  0  0  0  0  0  0
   -3.9420    1.1667   -0.0651 C   0  0  0  0  0  0  0  0  0  0  0  0
   -4.4852    1.9305   -1.7893 Br  0  0  0  0  0  0  0  0  0  0  0  0
   -3.9444   -0.3556   -0.0088 C   0  0  0  0  0  0  0  0  0  0  0  0
   -5.6294   -1.1368   -0.6171 Br  0  0  0  0  0  0  0  0  0  0  0  0
   -3.3823   -1.2203   -2.6881 H   0  0  0  0  0  0  0  0  0  0  0  0
   -2.2850    0.1611   -2.4356 H   0  0  0  0  0  0  0  0  0  0  0  0
   -1.6425   -1.4495   -2.4720 H   0  0  0  0  0  0  0  0  0  0  0  0
   -3.3941   -3.0849   -0.7806 H   0  0  0  0  0  0  0  0  0  0  0  0
   -2.7281   -2.6586    0.8132 H   0  0  0  0  0  0  0  0  0  0  0  0
   -1.6476   -2.9258   -0.5381 H   0  0  0  0  0  0  0  0  0  0  0  0
   -3.2749    3.7367    0.6597 H   0  0  0  0  0  0  0  0  0  0  0  0
   -1.0101    4.5606    1.2436 H   0  0  0  0  0  0  0  0  0  0  0  0
    1.5777    1.2535    2.6265 H   0  0  0  0  0  0  0  0  0  0  0  0
    3.6854   -0.0276    2.6765 H   0  0  0  0  0  0  0  0  0  0  0  0
    2.9559   -1.3431   -1.3810 H   0  0  0  0  0  0  0  0  0  0  0  0
    7.1575   -1.0141    0.0594 H   0  0  0  0  0  0  0  0  0  0  0  0
    6.2165    0.3417    0.7453 H   0  0  0  0  0  0  0  0  0  0  0  0
    5.9102   -0.2112   -0.9376 H   0  0  0  0  0  0  0  0  0  0  0  0
   -4.6846    1.5562    0.6425 H   0  0  0  0  0  0  0  0  0  0  0  0
   -3.9450   -0.6134    1.0610 H   0  0  0  0  0  0  0  0  0  0  0  0
  1  2  1  0
  2  3  1  0
  2  4  1  0
  4  5  1  0
  5  6  2  0
  6  7  1  0
  7  8  2  0
  8  9  1  0
  9 10  2  0
 10 11  1  0
 11 12  2  0
 12 13  1  0
 13 14  2  0
 14 15  1  0
 15 16  2  0
 16 17  1  0
 14 18  1  0
 18 19  2  0
 18 20  2  0
 18 21  1  0
  6 22  1  0
 22 23  1  0
 22 24  1  0
 24 25  1  0
 24  2  1  0
 10  5  1  0
 16 11  1  0
  1 26  1  0
  1 27  1  0
  1 28  1  0
  3 29  1  0
  3 30  1  0
  3 31  1  0
  7 32  1  0
  8 33  1  0
 12 34  1  0
 13 35  1  0
 15 36  1  0
 21 37  1  0
 21 38  1  0
 21 39  1  0
 22 40  1  0
 24 41  1  0
M  END
>  <Unnamed: 0>  (31) 
100

>  <ID>  (31) 
TRAIN_0100

>  <Canonical_Smiles>  (31) 
CC1(C)Oc2c(ccnc2c3ccc(cc3F)S(=O)(=O)C)C(Br)C1Br

>  <Inhibition>  (31) 
29.1

>  <TDC_conf_true_inhibitor>  (31) 
1

>  <TDC_conf_non_inhibitor>  (31) 
0

>  <split>  (31) 
1

$$$$
31
     RDKit          3D

 31 33  0  0  0  0  0  0  0  0999 V2000
    5.0238   -1.3864    2.5311 Cl  0  0  0  0  0  0  0  0  0  0  0  0
    3.6944   -0.9772    1.5181 C   0  0  0  0  0  0  0  0  0  0  0  0
    3.8304    0.0417    0.5772 C   0  0  0  0  0  0  0  0  0  0  0  0
    2.7529    0.3764   -0.2472 C   0  0  0  0  0  0  0  0  0  0  0  0
    1.5293   -0.3047   -0.1335 C   0  0  0  0  0  0  0  0  0  0  0  0
    1.4140   -1.3330    0.8194 C   0  0  0  0  0  0  0  0  0  0  0  0
    2.4913   -1.6668    1.6427 C   0  0  0  0  0  0  0  0  0  0  0  0
    0.3514    0.0644   -1.0322 C   0  0  0  0  0  0  0  0  0  0  0  0
    0.0324   -1.1031   -1.8772 N   0  0  0  0  0  0  0  0  0  0  0  0
   -1.1737   -0.8659   -2.6646 C   0  0  0  0  0  0  0  0  0  0  0  0
   -2.3928   -0.7457   -1.7486 C   0  0  0  0  0  0  0  0  0  0  0  0
   -2.1678    0.2494   -0.6370 C   0  0  0  0  0  0  0  0  0  0  0  0
   -3.2689    0.7741    0.0563 C   0  0  0  0  0  0  0  0  0  0  0  0
   -3.0805    1.6876    1.0921 C   0  0  0  0  0  0  0  0  0  0  0  0
   -1.7908    2.0774    1.4380 C   0  0  0  0  0  0  0  0  0  0  0  0
   -1.5325    3.3287    2.8320 Br  0  0  0  0  0  0  0  0  0  0  0  0
   -0.6861    1.5551    0.7652 C   0  0  0  0  0  0  0  0  0  0  0  0
   -0.8559    0.6135   -0.2669 C   0  0  0  0  0  0  0  0  0  0  0  0
    4.7707    0.5778    0.4806 H   0  0  0  0  0  0  0  0  0  0  0  0
    2.8750    1.1742   -0.9765 H   0  0  0  0  0  0  0  0  0  0  0  0
    0.4762   -1.8783    0.9159 H   0  0  0  0  0  0  0  0  0  0  0  0
    2.3833   -2.4634    2.3734 H   0  0  0  0  0  0  0  0  0  0  0  0
    0.6693    0.8751   -1.7038 H   0  0  0  0  0  0  0  0  0  0  0  0
    0.8247   -1.2760   -2.4927 H   0  0  0  0  0  0  0  0  0  0  0  0
   -1.0576    0.0350   -3.2805 H   0  0  0  0  0  0  0  0  0  0  0  0
   -1.3265   -1.7047   -3.3527 H   0  0  0  0  0  0  0  0  0  0  0  0
   -2.6183   -1.7206   -1.2982 H   0  0  0  0  0  0  0  0  0  0  0  0
   -3.2583   -0.4445   -2.3504 H   0  0  0  0  0  0  0  0  0  0  0  0
   -4.2795    0.4731   -0.2112 H   0  0  0  0  0  0  0  0  0  0  0  0
   -3.9424    2.0885    1.6183 H   0  0  0  0  0  0  0  0  0  0  0  0
    0.3126    1.8779    1.0506 H   0  0  0  0  0  0  0  0  0  0  0  0
  1  2  1  0
  2  3  2  0
  3  4  1  0
  4  5  2  0
  5  6  1  0
  6  7  2  0
  5  8  1  0
  8  9  1  0
  9 10  1  0
 10 11  1  0
 11 12  1  0
 12 13  2  0
 13 14  1  0
 14 15  2  0
 15 16  1  0
 15 17  1  0
 17 18  2  0
  7  2  1  0
 18  8  1  0
 18 12  1  0
  3 19  1  0
  4 20  1  0
  6 21  1  0
  7 22  1  0
  8 23  1  0
  9 24  1  0
 10 25  1  0
 10 26  1  0
 11 27  1  0
 11 28  1  0
 13 29  1  0
 14 30  1  0
 17 31  1  0
M  END
>  <Unnamed: 0>  (32) 
101

>  <ID>  (32) 
TRAIN_0101

>  <Canonical_Smiles>  (32) 
Clc1ccc(cc1)C2NCCc3ccc(Br)cc23

>  <Inhibition>  (32) 
30.2

>  <TDC_conf_true_inhibitor>  (32) 
0

>  <TDC_conf_non_inhibitor>  (32) 
1

>  <split>  (32) 
1

$$$$
32
     RDKit          3D

 62 67  0  0  0  0  0  0  0  0999 V2000
   -0.4179    4.1472    1.0622 O   0  0  0  0  0  0  0  0  0  0  0  0
   -0.5431    3.0939    0.4413 C   0  0  0  0  0  0  0  0  0  0  0  0
   -1.7705    2.6171   -0.0057 N   0  0  0  0  0  0  0  0  0  0  0  0
   -2.0266    1.2382   -0.4389 C   0  0  0  0  0  0  0  0  0  0  0  0
   -3.4724    0.7968   -0.1421 C   0  0  0  0  0  0  0  0  0  0  0  0
   -4.4842    1.6583   -0.7898 N   0  0  0  0  0  0  0  0  0  0  0  0
   -5.8236    1.4532   -0.2167 C   0  0  0  0  0  0  0  0  0  0  0  0
   -6.3702    0.0600   -0.4537 C   0  0  0  0  0  0  0  0  0  0  0  0
   -6.5220   -0.4280   -1.7741 C   0  0  0  0  0  0  0  0  0  0  0  0
   -7.0326   -1.7066   -2.0177 C   0  0  0  0  0  0  0  0  0  0  0  0
   -7.3844   -2.4719   -0.9282 C   0  0  0  0  0  0  0  0  0  0  0  0
   -7.8947   -3.7327   -0.9737 O   0  0  0  0  0  0  0  0  0  0  0  0
   -8.0579   -4.0092    0.4328 C   0  0  0  0  0  0  0  0  0  0  0  0
   -7.6509   -2.9175    1.2844 O   0  0  0  0  0  0  0  0  0  0  0  0
   -7.2446   -2.0077    0.3583 C   0  0  0  0  0  0  0  0  0  0  0  0
   -6.7442   -0.7513    0.6302 C   0  0  0  0  0  0  0  0  0  0  0  0
   -4.0948    3.0859   -0.7677 C   0  0  0  0  0  0  0  0  0  0  0  0
   -2.9528    3.4512    0.1978 C   0  0  0  0  0  0  0  0  0  0  0  0
    0.6788    2.3046    0.1617 C   0  0  0  0  0  0  0  0  0  0  0  0
    1.5425    2.0041    1.2158 C   0  0  0  0  0  0  0  0  0  0  0  0
    2.7094    1.2704    0.9740 C   0  0  0  0  0  0  0  0  0  0  0  0
    3.0562    0.8661   -0.3221 C   0  0  0  0  0  0  0  0  0  0  0  0
    4.1912    0.0720   -0.6038 N   0  0  0  0  0  0  0  0  0  0  0  0
    5.4099   -0.0178    0.1169 C   0  0  0  0  0  0  0  0  0  0  0  0
    6.2847   -1.0344   -0.2353 C   0  0  0  0  0  0  0  0  0  0  0  0
    7.4773   -1.1107    0.4603 C   0  0  0  0  0  0  0  0  0  0  0  0
    7.7933   -0.2410    1.4429 N   0  0  0  0  0  0  0  0  0  0  0  0
    6.8780    0.6932    1.7174 C   0  0  0  0  0  0  0  0  0  0  0  0
    5.6992    0.8426    1.1047 N   0  0  0  0  0  0  0  0  0  0  0  0
    8.4344   -2.1268    0.1505 N   0  0  0  0  0  0  0  0  0  0  0  0
    8.3387   -3.1337   -0.7943 C   0  0  0  0  0  0  0  0  0  0  0  0
    9.4925   -3.8892   -0.7633 C   0  0  0  0  0  0  0  0  0  0  0  0
   10.3318   -3.3381    0.2281 C   0  0  0  0  0  0  0  0  0  0  0  0
    9.6645   -2.2641    0.7726 C   0  0  0  0  0  0  0  0  0  0  0  0
    2.1677    1.1711   -1.3687 C   0  0  0  0  0  0  0  0  0  0  0  0
    0.9978    1.9020   -1.1368 C   0  0  0  0  0  0  0  0  0  0  0  0
   -1.3286    0.5582    0.0588 H   0  0  0  0  0  0  0  0  0  0  0  0
   -1.8408    1.1934   -1.5180 H   0  0  0  0  0  0  0  0  0  0  0  0
   -3.6119    0.7969    0.9480 H   0  0  0  0  0  0  0  0  0  0  0  0
   -3.5928   -0.2355   -0.4885 H   0  0  0  0  0  0  0  0  0  0  0  0
   -6.5390    2.1439   -0.6828 H   0  0  0  0  0  0  0  0  0  0  0  0
   -5.8221    1.6879    0.8557 H   0  0  0  0  0  0  0  0  0  0  0  0
   -6.2294    0.1991   -2.6153 H   0  0  0  0  0  0  0  0  0  0  0  0
   -7.1467   -2.0833   -3.0277 H   0  0  0  0  0  0  0  0  0  0  0  0
   -9.1143   -4.2302    0.6261 H   0  0  0  0  0  0  0  0  0  0  0  0
   -7.4614   -4.8937    0.6879 H   0  0  0  0  0  0  0  0  0  0  0  0
   -6.6480   -0.4135    1.6556 H   0  0  0  0  0  0  0  0  0  0  0  0
   -3.7636    3.3304   -1.7855 H   0  0  0  0  0  0  0  0  0  0  0  0
   -4.9525    3.7402   -0.5696 H   0  0  0  0  0  0  0  0  0  0  0  0
   -2.6815    4.5051    0.0708 H   0  0  0  0  0  0  0  0  0  0  0  0
   -3.2757    3.3173    1.2377 H   0  0  0  0  0  0  0  0  0  0  0  0
    1.3094    2.3342    2.2254 H   0  0  0  0  0  0  0  0  0  0  0  0
    3.3458    1.0230    1.8205 H   0  0  0  0  0  0  0  0  0  0  0  0
    4.3899    0.0531   -1.5985 H   0  0  0  0  0  0  0  0  0  0  0  0
    6.0136   -1.7257   -1.0193 H   0  0  0  0  0  0  0  0  0  0  0  0
    7.1109    1.3960    2.5092 H   0  0  0  0  0  0  0  0  0  0  0  0
    7.4660   -3.2537   -1.4181 H   0  0  0  0  0  0  0  0  0  0  0  0
    9.7016   -4.7475   -1.3887 H   0  0  0  0  0  0  0  0  0  0  0  0
   11.3159   -3.6822    0.5185 H   0  0  0  0  0  0  0  0  0  0  0  0
    9.9599   -1.5759    1.5546 H   0  0  0  0  0  0  0  0  0  0  0  0
    2.3852    0.8526   -2.3853 H   0  0  0  0  0  0  0  0  0  0  0  0
    0.3499    2.1624   -1.9699 H   0  0  0  0  0  0  0  0  0  0  0  0
  1  2  2  0
  2  3  1  0
  3  4  1  0
  4  5  1  0
  5  6  1  0
  6  7  1  0
  7  8  1  0
  8  9  2  0
  9 10  1  0
 10 11  2  0
 11 12  1  0
 12 13  1  0
 13 14  1  0
 14 15  1  0
 15 16  2  0
  6 17  1  0
 17 18  1  0
  2 19  1  0
 19 20  2  0
 20 21  1  0
 21 22  2  0
 22 23  1  0
 23 24  1  0
 24 25  2  0
 25 26  1  0
 26 27  2  0
 27 28  1  0
 28 29  2  0
 26 30  1  0
 30 31  1  0
 31 32  2  0
 32 33  1  0
 33 34  2  0
 22 35  1  0
 35 36  2  0
 18  3  1  0
 16  8  1  0
 15 11  1  0
 36 19  1  0
 29 24  1  0
 34 30  1  0
  4 37  1  0
  4 38  1  0
  5 39  1  0
  5 40  1  0
  7 41  1  0
  7 42  1  0
  9 43  1  0
 10 44  1  0
 13 45  1  0
 13 46  1  0
 16 47  1  0
 17 48  1  0
 17 49  1  0
 18 50  1  0
 18 51  1  0
 20 52  1  0
 21 53  1  0
 23 54  1  0
 25 55  1  0
 28 56  1  0
 31 57  1  0
 32 58  1  0
 33 59  1  0
 34 60  1  0
 35 61  1  0
 36 62  1  0
M  END
>  <Unnamed: 0>  (33) 
103

>  <ID>  (33) 
TRAIN_0103

>  <Canonical_Smiles>  (33) 
O=C(N1CCN(Cc2ccc3OCOc3c2)CC1)c4ccc(Nc5cc(ncn5)n6cccc6)cc4

>  <Inhibition>  (33) 
91.4

>  <TDC_conf_true_inhibitor>  (33) 
1

>  <TDC_conf_non_inhibitor>  (33) 
0

>  <split>  (33) 
1

$$$$
33
     RDKit          3D

 48 49  0  0  0  0  0  0  0  0999 V2000
    7.7250    1.0288   -1.7694 C   0  0  0  0  0  0  0  0  0  0  0  0
    5.9384    0.8306   -1.9792 S   0  0  0  0  0  0  0  0  0  0  0  0
    5.5381   -0.0669   -0.4995 C   0  0  0  0  0  0  0  0  0  0  0  0
    6.5135   -0.3875    0.3557 N   0  0  0  0  0  0  0  0  0  0  0  0
    6.1246   -1.0624    1.4470 C   0  0  0  0  0  0  0  0  0  0  0  0
    7.4023   -1.4556    2.5234 Cl  0  0  0  0  0  0  0  0  0  0  0  0
    4.8382   -1.4299    1.7291 C   0  0  0  0  0  0  0  0  0  0  0  0
    3.9262   -1.0505    0.7834 C   0  0  0  0  0  0  0  0  0  0  0  0
    2.6129   -1.3937    1.0343 O   0  0  0  0  0  0  0  0  0  0  0  0
    1.6780   -1.0111    0.0188 C   0  0  0  0  0  0  0  0  0  0  0  0
    1.1791    0.4318    0.2245 C   0  0  0  0  0  0  0  0  0  0  0  0
    0.1913    0.8502   -0.8712 C   0  0  0  0  0  0  0  0  0  0  0  0
   -1.1633    0.1579   -0.7430 C   0  0  0  0  0  0  0  0  0  0  0  0
   -1.7151    0.2536    0.6064 N   0  0  0  0  0  0  0  0  0  0  0  0
   -0.8239   -0.0560    1.7184 C   0  0  0  0  0  0  0  0  0  0  0  0
    0.5252    0.6454    1.5979 C   0  0  0  0  0  0  0  0  0  0  0  0
   -3.0828    0.1234    0.8340 C   0  0  0  0  0  0  0  0  0  0  0  0
   -3.5707   -0.0486    1.9439 O   0  0  0  0  0  0  0  0  0  0  0  0
   -3.8053    0.2049   -0.3130 O   0  0  0  0  0  0  0  0  0  0  0  0
   -5.2519    0.1013   -0.2988 C   0  0  0  0  0  0  0  0  0  0  0  0
   -5.7082   -1.2735    0.2016 C   0  0  0  0  0  0  0  0  0  0  0  0
   -5.6645    0.2473   -1.7718 C   0  0  0  0  0  0  0  0  0  0  0  0
   -5.8864    1.2443    0.5011 C   0  0  0  0  0  0  0  0  0  0  0  0
    4.2437   -0.3736   -0.3301 N   0  0  0  0  0  0  0  0  0  0  0  0
    8.2228    0.0559   -1.7290 H   0  0  0  0  0  0  0  0  0  0  0  0
    7.9500    1.5974   -0.8626 H   0  0  0  0  0  0  0  0  0  0  0  0
    8.1231    1.5805   -2.6255 H   0  0  0  0  0  0  0  0  0  0  0  0
    4.5594   -1.9720    2.6198 H   0  0  0  0  0  0  0  0  0  0  0  0
    0.8453   -1.7177    0.1000 H   0  0  0  0  0  0  0  0  0  0  0  0
    2.0838   -1.1628   -0.9898 H   0  0  0  0  0  0  0  0  0  0  0  0
    2.0460    1.1023    0.1748 H   0  0  0  0  0  0  0  0  0  0  0  0
    0.0356    1.9350   -0.8016 H   0  0  0  0  0  0  0  0  0  0  0  0
    0.6145    0.6583   -1.8640 H   0  0  0  0  0  0  0  0  0  0  0  0
   -1.8514    0.6018   -1.4700 H   0  0  0  0  0  0  0  0  0  0  0  0
   -1.0839   -0.9075   -0.9884 H   0  0  0  0  0  0  0  0  0  0  0  0
   -1.2929    0.2335    2.6656 H   0  0  0  0  0  0  0  0  0  0  0  0
   -0.6990   -1.1447    1.7465 H   0  0  0  0  0  0  0  0  0  0  0  0
    0.3715    1.7230    1.7437 H   0  0  0  0  0  0  0  0  0  0  0  0
    1.1891    0.3156    2.4047 H   0  0  0  0  0  0  0  0  0  0  0  0
   -5.5058   -1.4094    1.2681 H   0  0  0  0  0  0  0  0  0  0  0  0
   -6.7843   -1.4145    0.0529 H   0  0  0  0  0  0  0  0  0  0  0  0
   -5.1759   -2.0745   -0.3236 H   0  0  0  0  0  0  0  0  0  0  0  0
   -5.3222    1.2058   -2.1792 H   0  0  0  0  0  0  0  0  0  0  0  0
   -6.7505    0.1856   -1.8988 H   0  0  0  0  0  0  0  0  0  0  0  0
   -5.1992   -0.5327   -2.3859 H   0  0  0  0  0  0  0  0  0  0  0  0
   -6.9739    1.2649    0.3721 H   0  0  0  0  0  0  0  0  0  0  0  0
   -5.6867    1.1545    1.5730 H   0  0  0  0  0  0  0  0  0  0  0  0
   -5.4796    2.2118    0.1859 H   0  0  0  0  0  0  0  0  0  0  0  0
  1  2  1  0
  2  3  1  0
  3  4  2  0
  4  5  1  0
  5  6  1  0
  5  7  2  0
  7  8  1  0
  8  9  1  0
  9 10  1  0
 10 11  1  0
 11 12  1  0
 12 13  1  0
 13 14  1  0
 14 15  1  0
 15 16  1  0
 14 17  1  0
 17 18  2  0
 17 19  1  0
 19 20  1  0
 20 21  1  0
 20 22  1  0
 20 23  1  0
  8 24  2  0
 24  3  1  0
 16 11  1  0
  1 25  1  0
  1 26  1  0
  1 27  1  0
  7 28  1  0
 10 29  1  0
 10 30  1  0
 11 31  1  0
 12 32  1  0
 12 33  1  0
 13 34  1  0
 13 35  1  0
 15 36  1  0
 15 37  1  0
 16 38  1  0
 16 39  1  0
 21 40  1  0
 21 41  1  0
 21 42  1  0
 22 43  1  0
 22 44  1  0
 22 45  1  0
 23 46  1  0
 23 47  1  0
 23 48  1  0
M  END
>  <Unnamed: 0>  (34) 
106

>  <ID>  (34) 
TRAIN_0106

>  <Canonical_Smiles>  (34) 
CSc1nc(Cl)cc(OCC2CCN(CC2)C(=O)OC(C)(C)C)n1

>  <Inhibition>  (34) 
4.35

>  <TDC_conf_true_inhibitor>  (34) 
0

>  <TDC_conf_non_inhibitor>  (34) 
1

>  <split>  (34) 
1

$$$$
34
     RDKit          3D

 29 30  0  0  0  0  0  0  0  0999 V2000
   -2.5399    2.3304    0.0908 C   0  0  0  0  0  0  0  0  0  0  0  0
   -2.6292    0.8290    0.1818 C   0  0  0  0  0  0  0  0  0  0  0  0
   -3.9069    0.2403    0.2428 C   0  0  0  0  0  0  0  0  0  0  0  0
   -4.0454   -1.1421    0.3130 C   0  0  0  0  0  0  0  0  0  0  0  0
   -5.6131   -1.8457    0.3848 Cl  0  0  0  0  0  0  0  0  0  0  0  0
   -2.9205   -1.9537    0.3223 C   0  0  0  0  0  0  0  0  0  0  0  0
   -1.6475   -1.3768    0.2648 C   0  0  0  0  0  0  0  0  0  0  0  0
   -1.4699    0.0147    0.2082 C   0  0  0  0  0  0  0  0  0  0  0  0
   -0.2010    0.6064    0.1183 N   0  0  0  0  0  0  0  0  0  0  0  0
    1.0906    0.1112   -0.0554 C   0  0  0  0  0  0  0  0  0  0  0  0
    1.3195   -1.1609   -0.3582 N   0  0  0  0  0  0  0  0  0  0  0  0
    2.5859   -1.5051   -0.5128 C   0  0  0  0  0  0  0  0  0  0  0  0
    2.8537   -2.8191   -0.8396 N   0  0  0  0  0  0  0  0  0  0  0  0
    3.6157   -0.6834   -0.4122 N   0  0  0  0  0  0  0  0  0  0  0  0
    3.3022    0.5762   -0.1101 C   0  0  0  0  0  0  0  0  0  0  0  0
    4.4259    1.5677    0.0144 C   0  0  0  0  0  0  0  0  0  0  0  0
    4.7132    2.3979   -1.5332 Cl  0  0  0  0  0  0  0  0  0  0  0  0
    2.0557    1.0181    0.0782 N   0  0  0  0  0  0  0  0  0  0  0  0
   -1.9791    2.6253   -0.8021 H   0  0  0  0  0  0  0  0  0  0  0  0
   -3.5310    2.7910    0.0194 H   0  0  0  0  0  0  0  0  0  0  0  0
   -2.0508    2.7346    0.9828 H   0  0  0  0  0  0  0  0  0  0  0  0
   -4.7974    0.8647    0.2299 H   0  0  0  0  0  0  0  0  0  0  0  0
   -3.0177   -3.0345    0.3747 H   0  0  0  0  0  0  0  0  0  0  0  0
   -0.7937   -2.0478    0.2836 H   0  0  0  0  0  0  0  0  0  0  0  0
   -0.1443    1.5955    0.3090 H   0  0  0  0  0  0  0  0  0  0  0  0
    3.7358   -2.8869   -1.3279 H   0  0  0  0  0  0  0  0  0  0  0  0
    2.0489   -3.2380   -1.2853 H   0  0  0  0  0  0  0  0  0  0  0  0
    4.1874    2.3246    0.7677 H   0  0  0  0  0  0  0  0  0  0  0  0
    5.3529    1.0664    0.3086 H   0  0  0  0  0  0  0  0  0  0  0  0
  1  2  1  0
  2  3  2  0
  3  4  1  0
  4  5  1  0
  4  6  2  0
  6  7  1  0
  7  8  2  0
  8  9  1  0
  9 10  1  0
 10 11  2  0
 11 12  1  0
 12 13  1  0
 12 14  2  0
 14 15  1  0
 15 16  1  0
 16 17  1  0
 15 18  2  0
  8  2  1  0
 18 10  1  0
  1 19  1  0
  1 20  1  0
  1 21  1  0
  3 22  1  0
  6 23  1  0
  7 24  1  0
  9 25  1  0
 13 26  1  0
 13 27  1  0
 16 28  1  0
 16 29  1  0
M  END
>  <Unnamed: 0>  (35) 
107

>  <ID>  (35) 
TRAIN_0107

>  <Canonical_Smiles>  (35) 
Cc1cc(Cl)ccc1Nc2nc(N)nc(CCl)n2

>  <Inhibition>  (35) 
25.4

>  <TDC_conf_true_inhibitor>  (35) 
0

>  <TDC_conf_non_inhibitor>  (35) 
1

>  <split>  (35) 
1

$$$$
35
     RDKit          3D

 54 57  0  0  0  0  0  0  0  0999 V2000
   -6.0463   -1.1957   -2.6530 C   0  0  0  0  0  0  0  0  0  0  0  0
   -5.6511   -0.7657   -1.3514 O   0  0  0  0  0  0  0  0  0  0  0  0
   -5.4027    0.5642   -1.2724 C   0  0  0  0  0  0  0  0  0  0  0  0
   -5.4861    1.3946   -2.1598 O   0  0  0  0  0  0  0  0  0  0  0  0
   -5.0390    0.8799    0.1191 C   0  0  0  0  0  0  0  0  0  0  0  0
   -6.0275    1.5039    0.8918 C   0  0  0  0  0  0  0  0  0  0  0  0
   -5.7522    1.8391    2.2117 C   0  0  0  0  0  0  0  0  0  0  0  0
   -6.9610    2.5971    3.1721 Cl  0  0  0  0  0  0  0  0  0  0  0  0
   -4.5028    1.5652    2.7604 C   0  0  0  0  0  0  0  0  0  0  0  0
   -3.5146    0.9529    1.9826 C   0  0  0  0  0  0  0  0  0  0  0  0
   -3.7586    0.6002    0.6428 C   0  0  0  0  0  0  0  0  0  0  0  0
   -2.6571   -0.0312   -0.2002 C   0  0  0  0  0  0  0  0  0  0  0  0
   -2.2070   -1.3926    0.3555 C   0  0  0  0  0  0  0  0  0  0  0  0
   -0.8076   -1.7356   -0.1475 C   0  0  0  0  0  0  0  0  0  0  0  0
    0.1866   -0.8005    0.3807 N   0  0  0  0  0  0  0  0  0  0  0  0
    1.5004   -0.9800   -0.2699 C   0  0  0  0  0  0  0  0  0  0  0  0
    2.6668   -0.3474    0.5284 C   0  0  0  0  0  0  0  0  0  0  0  0
    2.4976    0.1752    1.6314 O   0  0  0  0  0  0  0  0  0  0  0  0
    3.9038   -0.4280   -0.1050 N   0  0  0  0  0  0  0  0  0  0  0  0
    4.1614   -1.0261   -1.4268 C   0  0  0  0  0  0  0  0  0  0  0  0
    5.6670   -0.9339   -1.7011 C   0  0  0  0  0  0  0  0  0  0  0  0
    6.1589   -0.1975   -0.4988 C   0  0  0  0  0  0  0  0  0  0  0  0
    7.4642    0.1931   -0.2333 C   0  0  0  0  0  0  0  0  0  0  0  0
    7.7253    0.8646    0.9620 C   0  0  0  0  0  0  0  0  0  0  0  0
    6.6875    1.1313    1.8663 C   0  0  0  0  0  0  0  0  0  0  0  0
    5.3755    0.7299    1.5886 C   0  0  0  0  0  0  0  0  0  0  0  0
    5.1224    0.0674    0.3990 C   0  0  0  0  0  0  0  0  0  0  0  0
   -0.2500    0.6016    0.4292 C   0  0  0  0  0  0  0  0  0  0  0  0
   -1.4674    0.9195   -0.4410 C   0  0  0  0  0  0  0  0  0  0  0  0
   -6.9324   -0.6476   -2.9909 H   0  0  0  0  0  0  0  0  0  0  0  0
   -6.2972   -2.2603   -2.5992 H   0  0  0  0  0  0  0  0  0  0  0  0
   -5.2205   -1.0678   -3.3605 H   0  0  0  0  0  0  0  0  0  0  0  0
   -7.0012    1.7235    0.4607 H   0  0  0  0  0  0  0  0  0  0  0  0
   -4.2859    1.8263    3.7930 H   0  0  0  0  0  0  0  0  0  0  0  0
   -2.5474    0.7559    2.4419 H   0  0  0  0  0  0  0  0  0  0  0  0
   -3.0593   -0.2335   -1.2011 H   0  0  0  0  0  0  0  0  0  0  0  0
   -2.2057   -1.4106    1.4528 H   0  0  0  0  0  0  0  0  0  0  0  0
   -2.9192   -2.1672    0.0420 H   0  0  0  0  0  0  0  0  0  0  0  0
   -0.5548   -2.7512    0.1786 H   0  0  0  0  0  0  0  0  0  0  0  0
   -0.8059   -1.7366   -1.2450 H   0  0  0  0  0  0  0  0  0  0  0  0
    1.4728   -0.5612   -1.2821 H   0  0  0  0  0  0  0  0  0  0  0  0
    1.7233   -2.0524   -0.3354 H   0  0  0  0  0  0  0  0  0  0  0  0
    3.8166   -2.0659   -1.4327 H   0  0  0  0  0  0  0  0  0  0  0  0
    3.5910   -0.4723   -2.1810 H   0  0  0  0  0  0  0  0  0  0  0  0
    6.1168   -1.9294   -1.7654 H   0  0  0  0  0  0  0  0  0  0  0  0
    5.8686   -0.3795   -2.6231 H   0  0  0  0  0  0  0  0  0  0  0  0
    8.2682   -0.0189   -0.9320 H   0  0  0  0  0  0  0  0  0  0  0  0
    8.7392    1.1818    1.1959 H   0  0  0  0  0  0  0  0  0  0  0  0
    6.9027    1.6542    2.7956 H   0  0  0  0  0  0  0  0  0  0  0  0
    4.5899    0.9426    2.3050 H   0  0  0  0  0  0  0  0  0  0  0  0
   -0.4842    0.8366    1.4731 H   0  0  0  0  0  0  0  0  0  0  0  0
    0.5554    1.2924    0.1493 H   0  0  0  0  0  0  0  0  0  0  0  0
   -1.1582    0.8264   -1.4924 H   0  0  0  0  0  0  0  0  0  0  0  0
   -1.7590    1.9691   -0.3088 H   0  0  0  0  0  0  0  0  0  0  0  0
  1  2  1  0
  2  3  1  0
  3  4  2  0
  3  5  1  0
  5  6  2  0
  6  7  1  0
  7  8  1  0
  7  9  2  0
  9 10  1  0
 10 11  2  0
 11 12  1  0
 12 13  1  0
 13 14  1  0
 14 15  1  0
 15 16  1  0
 16 17  1  0
 17 18  2  0
 17 19  1  0
 19 20  1  0
 20 21  1  0
 21 22  1  0
 22 23  2  0
 23 24  1  0
 24 25  2  0
 25 26  1  0
 26 27  2  0
 15 28  1  0
 28 29  1  0
 11  5  1  0
 29 12  1  0
 27 19  1  0
 27 22  1  0
  1 30  1  0
  1 31  1  0
  1 32  1  0
  6 33  1  0
  9 34  1  0
 10 35  1  0
 12 36  1  0
 13 37  1  0
 13 38  1  0
 14 39  1  0
 14 40  1  0
 16 41  1  0
 16 42  1  0
 20 43  1  0
 20 44  1  0
 21 45  1  0
 21 46  1  0
 23 47  1  0
 24 48  1  0
 25 49  1  0
 26 50  1  0
 28 51  1  0
 28 52  1  0
 29 53  1  0
 29 54  1  0
M  END
>  <Unnamed: 0>  (36) 
114

>  <ID>  (36) 
TRAIN_0114

>  <Canonical_Smiles>  (36) 
COC(=O)c1cc(Cl)ccc1C2CCN(CC(=O)N3CCc4ccccc34)CC2

>  <Inhibition>  (36) 
28.3

>  <TDC_conf_true_inhibitor>  (36) 
1

>  <TDC_conf_non_inhibitor>  (36) 
0

>  <split>  (36) 
1

$$$$
36
     RDKit          3D

 43 47  0  0  0  0  0  0  0  0999 V2000
   -4.2020    2.4138    2.8771 Cl  0  0  0  0  0  0  0  0  0  0  0  0
   -3.3412    3.0339    1.5101 C   0  0  0  0  0  0  0  0  0  0  0  0
   -3.6313    4.3686    1.1859 C   0  0  0  0  0  0  0  0  0  0  0  0
   -3.0034    4.9924    0.1133 C   0  0  0  0  0  0  0  0  0  0  0  0
   -2.0744    4.2849   -0.6405 C   0  0  0  0  0  0  0  0  0  0  0  0
   -1.7746    2.9496   -0.3277 C   0  0  0  0  0  0  0  0  0  0  0  0
   -0.7701    2.2534   -1.1184 C   0  0  0  0  0  0  0  0  0  0  0  0
   -0.4528    0.9706   -0.8766 C   0  0  0  0  0  0  0  0  0  0  0  0
    0.6971    0.3567   -1.6679 C   0  0  0  0  0  0  0  0  0  0  0  0
    1.8426   -0.0370   -0.8496 N   0  0  0  0  0  0  0  0  0  0  0  0
    2.4543    0.7347    0.1122 C   0  0  0  0  0  0  0  0  0  0  0  0
    3.4718   -0.0101    0.6719 C   0  0  0  0  0  0  0  0  0  0  0  0
    3.5063   -1.2592    0.0006 C   0  0  0  0  0  0  0  0  0  0  0  0
    4.2686   -2.4233    0.0757 C   0  0  0  0  0  0  0  0  0  0  0  0
    4.0120   -3.4502   -0.7642 N   0  0  0  0  0  0  0  0  0  0  0  0
    3.0135   -3.2813   -1.6512 C   0  0  0  0  0  0  0  0  0  0  0  0
    2.7167   -4.6081   -2.6906 Cl  0  0  0  0  0  0  0  0  0  0  0  0
    2.2206   -2.2134   -1.8398 N   0  0  0  0  0  0  0  0  0  0  0  0
    2.5050   -1.2353   -0.9621 C   0  0  0  0  0  0  0  0  0  0  0  0
   -1.1102    0.2531    0.1388 N   0  0  0  0  0  0  0  0  0  0  0  0
   -2.0582    0.8743    1.0025 C   0  0  0  0  0  0  0  0  0  0  0  0
   -2.6235    0.2756    1.9150 O   0  0  0  0  0  0  0  0  0  0  0  0
   -2.4065    2.3075    0.7476 C   0  0  0  0  0  0  0  0  0  0  0  0
   -0.8772   -1.1488    0.3623 C   0  0  0  0  0  0  0  0  0  0  0  0
   -0.4789   -1.6100    1.6245 C   0  0  0  0  0  0  0  0  0  0  0  0
   -0.2233   -2.9665    1.8370 C   0  0  0  0  0  0  0  0  0  0  0  0
   -0.3776   -3.8773    0.7944 C   0  0  0  0  0  0  0  0  0  0  0  0
   -0.8002   -3.4351   -0.4572 C   0  0  0  0  0  0  0  0  0  0  0  0
   -1.0532   -2.0778   -0.6717 C   0  0  0  0  0  0  0  0  0  0  0  0
   -4.3550    4.9296    1.7748 H   0  0  0  0  0  0  0  0  0  0  0  0
   -3.2356    6.0266   -0.1295 H   0  0  0  0  0  0  0  0  0  0  0  0
   -1.5845    4.7867   -1.4730 H   0  0  0  0  0  0  0  0  0  0  0  0
   -0.2556    2.8238   -1.8869 H   0  0  0  0  0  0  0  0  0  0  0  0
    0.3611   -0.4967   -2.2613 H   0  0  0  0  0  0  0  0  0  0  0  0
    1.1079    1.0750   -2.3902 H   0  0  0  0  0  0  0  0  0  0  0  0
    2.1042    1.7335    0.3393 H   0  0  0  0  0  0  0  0  0  0  0  0
    4.1203    0.3146    1.4755 H   0  0  0  0  0  0  0  0  0  0  0  0
    5.0756   -2.5625    0.7854 H   0  0  0  0  0  0  0  0  0  0  0  0
   -0.3517   -0.9135    2.4494 H   0  0  0  0  0  0  0  0  0  0  0  0
    0.0920   -3.3100    2.8185 H   0  0  0  0  0  0  0  0  0  0  0  0
   -0.1790   -4.9330    0.9600 H   0  0  0  0  0  0  0  0  0  0  0  0
   -0.9345   -4.1468   -1.2676 H   0  0  0  0  0  0  0  0  0  0  0  0
   -1.4152   -1.7629   -1.6458 H   0  0  0  0  0  0  0  0  0  0  0  0
  1  2  1  0
  2  3  2  0
  3  4  1  0
  4  5  2  0
  5  6  1  0
  6  7  1  0
  7  8  2  0
  8  9  1  0
  9 10  1  0
 10 11  1  0
 11 12  2  0
 12 13  1  0
 13 14  2  0
 14 15  1  0
 15 16  2  0
 16 17  1  0
 16 18  1  0
 18 19  2  0
  8 20  1  0
 20 21  1  0
 21 22  2  0
 21 23  1  0
 20 24  1  0
 24 25  2  0
 25 26  1  0
 26 27  2  0
 27 28  1  0
 28 29  2  0
 23  2  1  0
 23  6  2  0
 19 10  1  0
 19 13  1  0
 29 24  1  0
  3 30  1  0
  4 31  1  0
  5 32  1  0
  7 33  1  0
  9 34  1  0
  9 35  1  0
 11 36  1  0
 12 37  1  0
 14 38  1  0
 25 39  1  0
 26 40  1  0
 27 41  1  0
 28 42  1  0
 29 43  1  0
M  END
>  <Unnamed: 0>  (37) 
136

>  <ID>  (37) 
TRAIN_0136

>  <Canonical_Smiles>  (37) 
Clc1cccc2C=C(Cn3ccc4cnc(Cl)nc34)N(C(=O)c12)c5ccccc5

>  <Inhibition>  (37) 
37.6

>  <TDC_conf_true_inhibitor>  (37) 
0

>  <TDC_conf_non_inhibitor>  (37) 
1

>  <split>  (37) 
1

$$$$
37
     RDKit          3D

 44 48  0  0  0  0  0  0  0  0999 V2000
    6.1129   -2.9921    0.9795 Br  0  0  0  0  0  0  0  0  0  0  0  0
    4.9564   -1.5265    0.6872 C   0  0  0  0  0  0  0  0  0  0  0  0
    5.2102   -0.3088    1.3131 C   0  0  0  0  0  0  0  0  0  0  0  0
    4.3524    0.7734    1.0960 C   0  0  0  0  0  0  0  0  0  0  0  0
    3.2357    0.6427    0.2599 C   0  0  0  0  0  0  0  0  0  0  0  0
    2.1848    2.0671    0.0208 S   0  0  0  0  0  0  0  0  0  0  0  0
    0.5744    1.3877   -0.0382 C   0  0  0  0  0  0  0  0  0  0  0  0
   -0.2460    1.3588   -1.1755 C   0  0  0  0  0  0  0  0  0  0  0  0
   -1.4146    0.7717   -0.9443 N   0  0  0  0  0  0  0  0  0  0  0  0
   -1.3844    0.4313    0.3801 N   0  0  0  0  0  0  0  0  0  0  0  0
   -2.5728   -0.0999    0.9219 C   0  0  0  0  0  0  0  0  0  0  0  0
   -2.7999    0.0274    2.1243 O   0  0  0  0  0  0  0  0  0  0  0  0
   -3.6045   -0.7546    0.0934 C   0  0  0  0  0  0  0  0  0  0  0  0
   -4.9449   -0.5431    0.3840 C   0  0  0  0  0  0  0  0  0  0  0  0
   -5.9439   -1.1429   -0.3134 N   0  0  0  0  0  0  0  0  0  0  0  0
   -5.5390   -1.9726   -1.3024 C   0  0  0  0  0  0  0  0  0  0  0  0
   -4.2000   -2.2030   -1.5777 C   0  0  0  0  0  0  0  0  0  0  0  0
   -3.2012   -1.6134   -0.8814 N   0  0  0  0  0  0  0  0  0  0  0  0
   -0.1692    0.7932    0.9680 C   0  0  0  0  0  0  0  0  0  0  0  0
    0.3947    0.5706    2.4175 C   0  0  0  0  0  0  0  0  0  0  0  0
   -0.3914    0.9619    3.6326 C   0  0  0  0  0  0  0  0  0  0  0  0
   -0.1176   -0.4918    3.3419 C   0  0  0  0  0  0  0  0  0  0  0  0
    0.1258    1.9433   -2.5703 C   0  0  0  0  0  0  0  0  0  0  0  0
   -0.5056    1.3738   -3.8158 C   0  0  0  0  0  0  0  0  0  0  0  0
    0.9409    1.1060   -3.5229 C   0  0  0  0  0  0  0  0  0  0  0  0
    3.0010   -0.5852   -0.3709 C   0  0  0  0  0  0  0  0  0  0  0  0
    3.8567   -1.6698   -0.1554 C   0  0  0  0  0  0  0  0  0  0  0  0
    6.0690   -0.1890    1.9684 H   0  0  0  0  0  0  0  0  0  0  0  0
    4.5631    1.7199    1.5897 H   0  0  0  0  0  0  0  0  0  0  0  0
   -5.2603    0.1150    1.1870 H   0  0  0  0  0  0  0  0  0  0  0  0
   -6.3262   -2.4548   -1.8714 H   0  0  0  0  0  0  0  0  0  0  0  0
   -3.8937   -2.8749   -2.3719 H   0  0  0  0  0  0  0  0  0  0  0  0
    1.4654    0.7448    2.4968 H   0  0  0  0  0  0  0  0  0  0  0  0
    0.1459    1.4220    4.4550 H   0  0  0  0  0  0  0  0  0  0  0  0
   -1.3983    1.3406    3.5195 H   0  0  0  0  0  0  0  0  0  0  0  0
   -0.9358   -1.1309    3.0430 H   0  0  0  0  0  0  0  0  0  0  0  0
    0.6043   -1.0019    3.9718 H   0  0  0  0  0  0  0  0  0  0  0  0
    0.3050    3.0137   -2.5657 H   0  0  0  0  0  0  0  0  0  0  0  0
   -1.2076    0.5537   -3.7107 H   0  0  0  0  0  0  0  0  0  0  0  0
   -0.7479    2.0621   -4.6165 H   0  0  0  0  0  0  0  0  0  0  0  0
    1.2119    0.0974   -3.2349 H   0  0  0  0  0  0  0  0  0  0  0  0
    1.6861    1.6116   -4.1255 H   0  0  0  0  0  0  0  0  0  0  0  0
    2.1526   -0.7176   -1.0369 H   0  0  0  0  0  0  0  0  0  0  0  0
    3.6555   -2.6166   -0.6500 H   0  0  0  0  0  0  0  0  0  0  0  0
  1  2  1  0
  2  3  2  0
  3  4  1  0
  4  5  2  0
  5  6  1  0
  6  7  1  0
  7  8  1  0
  8  9  2  0
  9 10  1  0
 10 11  1  0
 11 12  2  0
 11 13  1  0
 13 14  2  0
 14 15  1  0
 15 16  2  0
 16 17  1  0
 17 18  2  0
 10 19  1  0
 19 20  1  0
 20 21  1  0
 21 22  1  0
  8 23  1  0
 23 24  1  0
 24 25  1  0
  5 26  1  0
 26 27  2  0
 27  2  1  0
 19  7  2  0
 18 13  1  0
 22 20  1  0
 25 23  1  0
  3 28  1  0
  4 29  1  0
 14 30  1  0
 16 31  1  0
 17 32  1  0
 20 33  1  0
 21 34  1  0
 21 35  1  0
 22 36  1  0
 22 37  1  0
 23 38  1  0
 24 39  1  0
 24 40  1  0
 25 41  1  0
 25 42  1  0
 26 43  1  0
 27 44  1  0
M  END
>  <Unnamed: 0>  (38) 
145

>  <ID>  (38) 
TRAIN_0145

>  <Canonical_Smiles>  (38) 
Brc1ccc(Sc2c(nn(C(=O)c3cnccn3)c2C4CC4)C5CC5)cc1

>  <Inhibition>  (38) 
39.8

>  <TDC_conf_true_inhibitor>  (38) 
0

>  <TDC_conf_non_inhibitor>  (38) 
1

>  <split>  (38) 
1

$$$$
38
     RDKit          3D

 42 44  0  0  0  0  0  0  0  0999 V2000
    6.9754   -0.4165   -1.2250 C   0  0  0  0  0  0  0  0  0  0  0  0
    5.6620    0.2735   -1.0035 C   0  0  0  0  0  0  0  0  0  0  0  0
    5.5961    1.6678   -0.9393 C   0  0  0  0  0  0  0  0  0  0  0  0
    4.3775    2.3010   -0.7009 C   0  0  0  0  0  0  0  0  0  0  0  0
    3.2145    1.5484   -0.5151 C   0  0  0  0  0  0  0  0  0  0  0  0
    3.2614    0.1554   -0.5632 C   0  0  0  0  0  0  0  0  0  0  0  0
    2.1411   -0.6772   -0.3758 N   0  0  0  0  0  0  0  0  0  0  0  0
    0.8183   -0.3030   -0.2030 C   0  0  0  0  0  0  0  0  0  0  0  0
    0.3810    0.8450   -0.1867 O   0  0  0  0  0  0  0  0  0  0  0  0
   -0.0973   -1.5020    0.0487 C   0  0  0  0  0  0  0  0  0  0  0  0
    0.2784   -2.5772   -0.8266 O   0  0  0  0  0  0  0  0  0  0  0  0
   -0.8971   -3.2291   -1.2558 N   0  0  0  0  0  0  0  0  0  0  0  0
   -1.8826   -2.4603   -0.9416 C   0  0  0  0  0  0  0  0  0  0  0  0
   -1.5374   -1.1777   -0.2906 C   0  0  0  0  0  0  0  0  0  0  0  0
   -2.3761   -0.9093    0.9354 C   0  0  0  0  0  0  0  0  0  0  0  0
   -2.0587   -1.3670    2.0339 O   0  0  0  0  0  0  0  0  0  0  0  0
   -3.5390   -0.1718    0.7704 N   0  0  0  0  0  0  0  0  0  0  0  0
   -4.3350    0.1795    1.9525 C   0  0  0  0  0  0  0  0  0  0  0  0
   -4.9468    1.5759    1.8038 C   0  0  0  0  0  0  0  0  0  0  0  0
   -5.7871    1.7199    0.6493 O   0  0  0  0  0  0  0  0  0  0  0  0
   -5.4827    0.8109   -0.4144 C   0  0  0  0  0  0  0  0  0  0  0  0
   -4.0005    0.4291   -0.4871 C   0  0  0  0  0  0  0  0  0  0  0  0
    4.4920   -0.4739   -0.8007 C   0  0  0  0  0  0  0  0  0  0  0  0
    7.6482    0.2057   -1.8245 H   0  0  0  0  0  0  0  0  0  0  0  0
    6.8350   -1.3575   -1.7672 H   0  0  0  0  0  0  0  0  0  0  0  0
    7.4532   -0.6288   -0.2637 H   0  0  0  0  0  0  0  0  0  0  0  0
    6.4918    2.2697   -1.0741 H   0  0  0  0  0  0  0  0  0  0  0  0
    4.3291    3.3861   -0.6548 H   0  0  0  0  0  0  0  0  0  0  0  0
    2.2899    2.0838   -0.3265 H   0  0  0  0  0  0  0  0  0  0  0  0
    2.3061   -1.6771   -0.4478 H   0  0  0  0  0  0  0  0  0  0  0  0
    0.0670   -1.8370    1.0787 H   0  0  0  0  0  0  0  0  0  0  0  0
   -2.9268   -2.7085   -1.1799 H   0  0  0  0  0  0  0  0  0  0  0  0
   -1.6244   -0.3762   -1.0280 H   0  0  0  0  0  0  0  0  0  0  0  0
   -3.7265    0.1301    2.8608 H   0  0  0  0  0  0  0  0  0  0  0  0
   -5.1271   -0.5744    2.0290 H   0  0  0  0  0  0  0  0  0  0  0  0
   -5.5501    1.8220    2.6831 H   0  0  0  0  0  0  0  0  0  0  0  0
   -4.1543    2.3294    1.7274 H   0  0  0  0  0  0  0  0  0  0  0  0
   -5.7989    1.2800   -1.3515 H   0  0  0  0  0  0  0  0  0  0  0  0
   -6.0993   -0.0845   -0.2730 H   0  0  0  0  0  0  0  0  0  0  0  0
   -3.3872    1.3224   -0.6519 H   0  0  0  0  0  0  0  0  0  0  0  0
   -3.8346   -0.2671   -1.3138 H   0  0  0  0  0  0  0  0  0  0  0  0
    4.5516   -1.5596   -0.8330 H   0  0  0  0  0  0  0  0  0  0  0  0
  1  2  1  0
  2  3  2  0
  3  4  1  0
  4  5  2  0
  5  6  1  0
  6  7  1  0
  7  8  1  0
  8  9  2  0
  8 10  1  0
 10 11  1  0
 11 12  1  0
 12 13  2  0
 13 14  1  0
 14 15  1  0
 15 16  2  0
 15 17  1  0
 17 18  1  0
 18 19  1  0
 19 20  1  0
 20 21  1  0
 21 22  1  0
  6 23  2  0
 23  2  1  0
 14 10  1  0
 22 17  1  0
  1 24  1  0
  1 25  1  0
  1 26  1  0
  3 27  1  0
  4 28  1  0
  5 29  1  0
  7 30  1  0
 10 31  1  0
 13 32  1  0
 14 33  1  0
 18 34  1  0
 18 35  1  0
 19 36  1  0
 19 37  1  0
 21 38  1  0
 21 39  1  0
 22 40  1  0
 22 41  1  0
 23 42  1  0
M  END
>  <Unnamed: 0>  (39) 
154

>  <ID>  (39) 
TRAIN_0154

>  <Canonical_Smiles>  (39) 
Cc1cccc(NC(=O)C2ON=CC2C(=O)N3CCOCC3)c1

>  <Inhibition>  (39) 
30.2

>  <TDC_conf_true_inhibitor>  (39) 
0

>  <TDC_conf_non_inhibitor>  (39) 
1

>  <split>  (39) 
1

$$$$
39
     RDKit          3D

 49 51  0  0  0  0  0  0  0  0999 V2000
   -4.5292   -1.8637   -1.8271 C   0  0  0  0  0  0  0  0  0  0  0  0
   -4.5809   -1.2612   -0.4142 C   0  0  0  0  0  0  0  0  0  0  0  0
   -5.8433   -0.3985   -0.2989 C   0  0  0  0  0  0  0  0  0  0  0  0
   -4.5736   -2.4066    0.6040 C   0  0  0  0  0  0  0  0  0  0  0  0
   -3.3782   -0.4550   -0.3155 O   0  0  0  0  0  0  0  0  0  0  0  0
   -3.0971    0.2483    0.8115 C   0  0  0  0  0  0  0  0  0  0  0  0
   -3.7895    0.2488    1.8198 O   0  0  0  0  0  0  0  0  0  0  0  0
   -1.9184    0.9672    0.6917 N   0  0  0  0  0  0  0  0  0  0  0  0
   -1.4282    1.7220    1.8373 C   0  0  0  0  0  0  0  0  0  0  0  0
    0.0930    1.7371    1.8688 C   0  0  0  0  0  0  0  0  0  0  0  0
    0.6609    2.4049    0.6070 C   0  0  0  0  0  0  0  0  0  0  0  0
   -0.2277    2.2096   -0.6362 C   0  0  0  0  0  0  0  0  0  0  0  0
   -1.1434    0.9954   -0.5438 C   0  0  0  0  0  0  0  0  0  0  0  0
    2.1008    2.0378    0.3481 C   0  0  0  0  0  0  0  0  0  0  0  0
    3.0040    3.0258    0.2298 N   0  0  0  0  0  0  0  0  0  0  0  0
    4.1630    2.3864   -0.0114 N   0  0  0  0  0  0  0  0  0  0  0  0
    4.0419    1.0300   -0.0610 C   0  0  0  0  0  0  0  0  0  0  0  0
    5.0292    0.1456   -0.2917 N   0  0  0  0  0  0  0  0  0  0  0  0
    4.5364   -1.1150   -0.2640 C   0  0  0  0  0  0  0  0  0  0  0  0
    3.2668   -1.5344   -0.0468 N   0  0  0  0  0  0  0  0  0  0  0  0
    2.3323   -0.5836    0.1789 C   0  0  0  0  0  0  0  0  0  0  0  0
    2.7031    0.7598    0.1747 C   0  0  0  0  0  0  0  0  0  0  0  0
    5.7276   -2.4183   -0.5581 S   0  0  0  0  0  6  0  0  0  0  0  0
    5.8899   -3.1753    0.6727 O   0  0  0  0  0  0  0  0  0  0  0  0
    5.3833   -3.0781   -1.8079 O   0  0  0  0  0  0  0  0  0  0  0  0
    7.2553   -1.5638   -0.8359 C   0  0  0  0  0  0  0  0  0  0  0  0
   -3.6228   -2.4659   -1.9612 H   0  0  0  0  0  0  0  0  0  0  0  0
   -4.4903   -1.0738   -2.5858 H   0  0  0  0  0  0  0  0  0  0  0  0
   -5.3987   -2.4969   -2.0320 H   0  0  0  0  0  0  0  0  0  0  0  0
   -5.7857    0.4678   -0.9681 H   0  0  0  0  0  0  0  0  0  0  0  0
   -5.9813   -0.0075    0.7123 H   0  0  0  0  0  0  0  0  0  0  0  0
   -6.7419   -0.9732   -0.5512 H   0  0  0  0  0  0  0  0  0  0  0  0
   -5.4024   -3.1004    0.4263 H   0  0  0  0  0  0  0  0  0  0  0  0
   -4.6678   -2.0433    1.6315 H   0  0  0  0  0  0  0  0  0  0  0  0
   -3.6333   -2.9687    0.5552 H   0  0  0  0  0  0  0  0  0  0  0  0
   -1.8162    1.2942    2.7670 H   0  0  0  0  0  0  0  0  0  0  0  0
   -1.8259    2.7398    1.7539 H   0  0  0  0  0  0  0  0  0  0  0  0
    0.4452    2.2727    2.7591 H   0  0  0  0  0  0  0  0  0  0  0  0
    0.4512    0.7062    1.9700 H   0  0  0  0  0  0  0  0  0  0  0  0
    0.6488    3.4885    0.8064 H   0  0  0  0  0  0  0  0  0  0  0  0
    0.3661    2.1613   -1.5572 H   0  0  0  0  0  0  0  0  0  0  0  0
   -0.8668    3.0986   -0.7375 H   0  0  0  0  0  0  0  0  0  0  0  0
   -1.8227    0.9879   -1.4033 H   0  0  0  0  0  0  0  0  0  0  0  0
   -0.5646    0.0680   -0.5837 H   0  0  0  0  0  0  0  0  0  0  0  0
    5.0075    2.9312   -0.1365 H   0  0  0  0  0  0  0  0  0  0  0  0
    1.3237   -0.9373    0.3608 H   0  0  0  0  0  0  0  0  0  0  0  0
    7.1536   -0.9139   -1.7071 H   0  0  0  0  0  0  0  0  0  0  0  0
    7.5163   -0.9900    0.0562 H   0  0  0  0  0  0  0  0  0  0  0  0
    8.0298   -2.3106   -1.0273 H   0  0  0  0  0  0  0  0  0  0  0  0
  1  2  1  0
  2  3  1  0
  2  4  1  0
  2  5  1  0
  5  6  1  0
  6  7  2  0
  6  8  1  0
  8  9  1  0
  9 10  1  0
 10 11  1  0
 11 12  1  0
 12 13  1  0
 11 14  1  0
 14 15  2  0
 15 16  1  0
 16 17  1  0
 17 18  2  0
 18 19  1  0
 19 20  2  0
 20 21  1  0
 21 22  2  0
 19 23  1  0
 23 24  2  0
 23 25  2  0
 23 26  1  0
 13  8  1  0
 22 14  1  0
 22 17  1  0
  1 27  1  0
  1 28  1  0
  1 29  1  0
  3 30  1  0
  3 31  1  0
  3 32  1  0
  4 33  1  0
  4 34  1  0
  4 35  1  0
  9 36  1  0
  9 37  1  0
 10 38  1  0
 10 39  1  0
 11 40  1  0
 12 41  1  0
 12 42  1  0
 13 43  1  0
 13 44  1  0
 16 45  1  0
 21 46  1  0
 26 47  1  0
 26 48  1  0
 26 49  1  0
M  END
>  <Unnamed: 0>  (40) 
156

>  <ID>  (40) 
TRAIN_0156

>  <Canonical_Smiles>  (40) 
CC(C)(C)OC(=O)N1CCC(CC1)c2n[nH]c3nc(ncc23)S(=O)(=O)C

>  <Inhibition>  (40) 
14.7

>  <TDC_conf_true_inhibitor>  (40) 
0

>  <TDC_conf_non_inhibitor>  (40) 
1

>  <split>  (40) 
1

$$$$
40
     RDKit          3D

 31 33  0  0  0  0  0  0  0  0999 V2000
    6.7767    0.4134   -0.1559 Br  0  0  0  0  0  0  0  0  0  0  0  0
    4.9098    0.1347   -0.1968 C   0  0  0  0  0  0  0  0  0  0  0  0
    4.0434    1.1821    0.0819 C   0  0  0  0  0  0  0  0  0  0  0  0
    2.6568    0.9715    0.0506 C   0  0  0  0  0  0  0  0  0  0  0  0
    2.1028   -0.2838   -0.2581 C   0  0  0  0  0  0  0  0  0  0  0  0
    3.0119   -1.3210   -0.5348 C   0  0  0  0  0  0  0  0  0  0  0  0
    4.3996   -1.1181   -0.5056 C   0  0  0  0  0  0  0  0  0  0  0  0
    0.6875   -0.4971   -0.2893 N   0  0  0  0  0  0  0  0  0  0  0  0
    0.0662   -1.7129   -0.4788 C   0  0  0  0  0  0  0  0  0  0  0  0
    0.5339   -2.8321   -0.6212 O   0  0  0  0  0  0  0  0  0  0  0  0
   -1.2979   -1.5287   -0.4771 N   0  0  0  0  0  0  0  0  0  0  0  0
   -1.6689   -0.1794   -0.1918 C   0  0  0  0  0  0  0  0  0  0  0  0
   -2.5586    0.4336   -1.2749 C   0  0  0  0  0  0  0  0  0  0  0  0
   -3.5353    1.3128   -0.5052 C   0  0  0  0  0  0  0  0  0  0  0  0
   -3.7904    0.5184    0.7644 C   0  0  0  0  0  0  0  0  0  0  0  0
   -2.4178   -0.0333    1.1397 C   0  0  0  0  0  0  0  0  0  0  0  0
   -0.2815    0.4800   -0.1364 C   0  0  0  0  0  0  0  0  0  0  0  0
   -0.1434    1.6875    0.0275 O   0  0  0  0  0  0  0  0  0  0  0  0
    4.4260    2.1698    0.3272 H   0  0  0  0  0  0  0  0  0  0  0  0
    2.0388    1.8320    0.2881 H   0  0  0  0  0  0  0  0  0  0  0  0
    2.6813   -2.3227   -0.7932 H   0  0  0  0  0  0  0  0  0  0  0  0
    5.0635   -1.9498   -0.7282 H   0  0  0  0  0  0  0  0  0  0  0  0
   -1.9220   -2.3230   -0.5432 H   0  0  0  0  0  0  0  0  0  0  0  0
   -2.0040    1.0124   -2.0208 H   0  0  0  0  0  0  0  0  0  0  0  0
   -3.1170   -0.3462   -1.8084 H   0  0  0  0  0  0  0  0  0  0  0  0
   -4.4532    1.5040   -1.0682 H   0  0  0  0  0  0  0  0  0  0  0  0
   -3.0721    2.2769   -0.2645 H   0  0  0  0  0  0  0  0  0  0  0  0
   -4.2221    1.1316    1.5607 H   0  0  0  0  0  0  0  0  0  0  0  0
   -4.4816   -0.3077    0.5586 H   0  0  0  0  0  0  0  0  0  0  0  0
   -1.9123    0.6741    1.8080 H   0  0  0  0  0  0  0  0  0  0  0  0
   -2.5199   -0.9791    1.6833 H   0  0  0  0  0  0  0  0  0  0  0  0
  1  2  1  0
  2  3  2  0
  3  4  1  0
  4  5  2  0
  5  6  1  0
  6  7  2  0
  5  8  1  0
  8  9  1  0
  9 10  2  0
  9 11  1  0
 11 12  1  0
 12 13  1  0
 13 14  1  0
 14 15  1  0
 15 16  1  0
 12 17  1  0
 17 18  2  0
  7  2  1  0
 17  8  1  0
 16 12  1  0
  3 19  1  0
  4 20  1  0
  6 21  1  0
  7 22  1  0
 11 23  1  0
 13 24  1  0
 13 25  1  0
 14 26  1  0
 14 27  1  0
 15 28  1  0
 15 29  1  0
 16 30  1  0
 16 31  1  0
M  END
>  <Unnamed: 0>  (41) 
187

>  <ID>  (41) 
TRAIN_0187

>  <Canonical_Smiles>  (41) 
Brc1ccc(cc1)N2C(=O)NC3(CCCC3)C2=O

>  <Inhibition>  (41) 
23.2

>  <TDC_conf_true_inhibitor>  (41) 
0

>  <TDC_conf_non_inhibitor>  (41) 
1

>  <split>  (41) 
1

$$$$
41
     RDKit          3D

 39 40  0  0  0  0  0  0  0  0999 V2000
   -2.7391   -3.0510   -3.0534 C   0  0  0  0  0  0  0  0  0  0  0  0
   -2.8826   -2.4537   -1.7290 N   0  0  0  0  0  0  0  0  0  0  0  0
   -4.0800   -1.6203   -1.6569 C   0  0  0  0  0  0  0  0  0  0  0  0
   -1.6713   -1.7615   -1.2738 C   0  0  0  0  0  0  0  0  0  0  0  0
   -1.2458   -0.5231   -2.0791 C   0  0  0  0  0  0  0  0  0  0  0  0
    0.0799    0.0938   -1.5943 C   0  0  0  0  0  0  0  0  0  0  0  0
    0.0270    0.7441   -0.1877 C   0  0  0  0  0  0  0  0  0  0  0  0
   -0.8535    1.9335   -0.2049 C   0  0  0  0  0  0  0  0  0  0  0  0
   -1.5709    2.8462   -0.2323 N   0  0  0  0  0  0  0  0  0  0  0  0
    1.4016    1.1007    0.3946 C   0  0  0  0  0  0  0  0  0  0  0  0
    2.4491    1.4861   -0.4673 C   0  0  0  0  0  0  0  0  0  0  0  0
    3.7093    1.8052    0.0268 C   0  0  0  0  0  0  0  0  0  0  0  0
    3.9497    1.7586    1.3941 C   0  0  0  0  0  0  0  0  0  0  0  0
    2.9326    1.4103    2.2906 C   0  0  0  0  0  0  0  0  0  0  0  0
    3.2066    1.3933    3.6684 C   0  0  0  0  0  0  0  0  0  0  0  0
    2.2188    1.0708    4.5945 C   0  0  0  0  0  0  0  0  0  0  0  0
    0.9409    0.7658    4.1524 C   0  0  0  0  0  0  0  0  0  0  0  0
    0.6539    0.7753    2.7839 C   0  0  0  0  0  0  0  0  0  0  0  0
    1.6358    1.0863    1.8092 C   0  0  0  0  0  0  0  0  0  0  0  0
   -2.6643   -2.3023   -3.8490 H   0  0  0  0  0  0  0  0  0  0  0  0
   -3.5995   -3.6925   -3.2753 H   0  0  0  0  0  0  0  0  0  0  0  0
   -1.8525   -3.6932   -3.0963 H   0  0  0  0  0  0  0  0  0  0  0  0
   -4.0688   -0.8020   -2.3848 H   0  0  0  0  0  0  0  0  0  0  0  0
   -4.9747   -2.2249   -1.8437 H   0  0  0  0  0  0  0  0  0  0  0  0
   -4.1961   -1.1925   -0.6550 H   0  0  0  0  0  0  0  0  0  0  0  0
   -0.8429   -2.4816   -1.2592 H   0  0  0  0  0  0  0  0  0  0  0  0
   -1.8271   -1.4837   -0.2252 H   0  0  0  0  0  0  0  0  0  0  0  0
   -2.0330    0.2379   -2.0603 H   0  0  0  0  0  0  0  0  0  0  0  0
   -1.1056   -0.8029   -3.1298 H   0  0  0  0  0  0  0  0  0  0  0  0
    0.8510   -0.6878   -1.6112 H   0  0  0  0  0  0  0  0  0  0  0  0
    0.3745    0.8432   -2.3409 H   0  0  0  0  0  0  0  0  0  0  0  0
   -0.4133   -0.0100    0.4701 H   0  0  0  0  0  0  0  0  0  0  0  0
    2.3036    1.5510   -1.5428 H   0  0  0  0  0  0  0  0  0  0  0  0
    4.5053    2.0949   -0.6546 H   0  0  0  0  0  0  0  0  0  0  0  0
    4.9435    2.0121    1.7579 H   0  0  0  0  0  0  0  0  0  0  0  0
    4.2013    1.6396    4.0349 H   0  0  0  0  0  0  0  0  0  0  0  0
    2.4467    1.0666    5.6569 H   0  0  0  0  0  0  0  0  0  0  0  0
    0.1599    0.5243    4.8691 H   0  0  0  0  0  0  0  0  0  0  0  0
   -0.3699    0.5436    2.5036 H   0  0  0  0  0  0  0  0  0  0  0  0
  1  2  1  0
  2  3  1  0
  2  4  1  0
  4  5  1  0
  5  6  1  0
  6  7  1  0
  7  8  1  0
  8  9  3  0
  7 10  1  0
 10 11  2  0
 11 12  1  0
 12 13  2  0
 13 14  1  0
 14 15  2  0
 15 16  1  0
 16 17  2  0
 17 18  1  0
 18 19  2  0
 19 10  1  0
 19 14  1  0
  1 20  1  0
  1 21  1  0
  1 22  1  0
  3 23  1  0
  3 24  1  0
  3 25  1  0
  4 26  1  0
  4 27  1  0
  5 28  1  0
  5 29  1  0
  6 30  1  0
  6 31  1  0
  7 32  1  0
 11 33  1  0
 12 34  1  0
 13 35  1  0
 15 36  1  0
 16 37  1  0
 17 38  1  0
 18 39  1  0
M  END
>  <Unnamed: 0>  (42) 
194

>  <ID>  (42) 
TRAIN_0194

>  <Canonical_Smiles>  (42) 
CN(C)CCCC(C#N)c1cccc2ccccc12

>  <Inhibition>  (42) 
23.6

>  <TDC_conf_true_inhibitor>  (42) 
0

>  <TDC_conf_non_inhibitor>  (42) 
1

>  <split>  (42) 
1

$$$$
42
     RDKit          3D

 25 26  0  0  0  0  0  0  0  0999 V2000
   -3.3680   -1.0874    0.3465 C   0  0  0  0  0  0  0  0  0  0  0  0
   -2.5460   -0.2945    1.2094 O   0  0  0  0  0  0  0  0  0  0  0  0
   -1.2979   -0.1083    0.6678 C   0  0  0  0  0  0  0  0  0  0  0  0
   -0.2474   -0.9866    1.0025 C   0  0  0  0  0  0  0  0  0  0  0  0
   -0.6104   -2.4371    2.2044 Br  0  0  0  0  0  0  0  0  0  0  0  0
    1.0681   -0.7929    0.4895 C   0  0  0  0  0  0  0  0  0  0  0  0
    2.1744   -1.6420    0.7522 C   0  0  0  0  0  0  0  0  0  0  0  0
    3.4417   -1.3952    0.2163 C   0  0  0  0  0  0  0  0  0  0  0  0
    3.6367   -0.2892   -0.5964 C   0  0  0  0  0  0  0  0  0  0  0  0
    5.3459    0.0538   -1.3254 Br  0  0  0  0  0  0  0  0  0  0  0  0
    2.5779    0.5700   -0.8757 C   0  0  0  0  0  0  0  0  0  0  0  0
    1.2996    0.3309   -0.3427 C   0  0  0  0  0  0  0  0  0  0  0  0
    0.2529    1.2183   -0.6308 C   0  0  0  0  0  0  0  0  0  0  0  0
   -1.0384    1.0159   -0.1242 C   0  0  0  0  0  0  0  0  0  0  0  0
   -2.1059    1.9977   -0.4466 C   0  0  0  0  0  0  0  0  0  0  0  0
   -3.3013    1.7981   -0.5347 O   0  0  0  0  0  0  0  0  0  0  0  0
   -1.5992    3.2298   -0.6504 O   0  0  0  0  0  0  0  0  0  0  0  0
   -3.1705   -2.1515    0.5066 H   0  0  0  0  0  0  0  0  0  0  0  0
   -4.4123   -0.8937    0.6091 H   0  0  0  0  0  0  0  0  0  0  0  0
   -3.2308   -0.8454   -0.7134 H   0  0  0  0  0  0  0  0  0  0  0  0
    2.0671   -2.5216    1.3836 H   0  0  0  0  0  0  0  0  0  0  0  0
    4.2610   -2.0726    0.4429 H   0  0  0  0  0  0  0  0  0  0  0  0
    2.7506    1.4360   -1.5124 H   0  0  0  0  0  0  0  0  0  0  0  0
    0.4452    2.0864   -1.2611 H   0  0  0  0  0  0  0  0  0  0  0  0
   -2.3931    3.7812   -0.8169 H   0  0  0  0  0  0  0  0  0  0  0  0
  1  2  1  0
  2  3  1  0
  3  4  2  0
  4  5  1  0
  4  6  1  0
  6  7  2  0
  7  8  1  0
  8  9  2  0
  9 10  1  0
  9 11  1  0
 11 12  2  0
 12 13  1  0
 13 14  2  0
 14 15  1  0
 15 16  2  0
 15 17  1  0
 14  3  1  0
 12  6  1  0
  1 18  1  0
  1 19  1  0
  1 20  1  0
  7 21  1  0
  8 22  1  0
 11 23  1  0
 13 24  1  0
 17 25  1  0
M  END
>  <Unnamed: 0>  (43) 
531

>  <ID>  (43) 
TRAIN_0531

>  <Canonical_Smiles>  (43) 
COc1c(Br)c2ccc(Br)cc2cc1C(=O)O

>  <Inhibition>  (43) 
38.1

>  <TDC_conf_true_inhibitor>  (43) 
0

>  <TDC_conf_non_inhibitor>  (43) 
1

>  <split>  (43) 
1

$$$$
43
     RDKit          3D

 25 26  0  0  0  0  0  0  0  0999 V2000
   -4.2052    0.1016    1.4947 O   0  0  0  0  0  0  0  0  0  0  0  0
   -4.0519   -0.1745    0.1881 C   0  0  0  0  0  0  0  0  0  0  0  0
   -5.0109   -0.3718   -0.5345 O   0  0  0  0  0  0  0  0  0  0  0  0
   -2.6298   -0.2051   -0.2307 C   0  0  0  0  0  0  0  0  0  0  0  0
   -2.3379   -0.4851   -1.5640 C   0  0  0  0  0  0  0  0  0  0  0  0
   -1.0090   -0.5221   -1.9981 C   0  0  0  0  0  0  0  0  0  0  0  0
    0.0727   -0.2816   -1.1147 C   0  0  0  0  0  0  0  0  0  0  0  0
    1.4451   -0.2958   -1.4913 C   0  0  0  0  0  0  0  0  0  0  0  0
    1.9740   -0.6401   -3.2990 Br  0  0  0  0  0  0  0  0  0  0  0  0
    2.4613   -0.0480   -0.5530 C   0  0  0  0  0  0  0  0  0  0  0  0
    3.7765   -0.0085   -0.9385 O   0  0  0  0  0  0  0  0  0  0  0  0
    2.1282    0.2003    0.7770 C   0  0  0  0  0  0  0  0  0  0  0  0
    0.7839    0.2410    1.1631 C   0  0  0  0  0  0  0  0  0  0  0  0
   -0.2433   -0.0006    0.2395 C   0  0  0  0  0  0  0  0  0  0  0  0
   -1.5831    0.0359    0.6645 C   0  0  0  0  0  0  0  0  0  0  0  0
    3.1341    0.4564    1.8238 C   0  0  0  0  0  0  0  0  0  0  0  0
    3.0488    1.3124    2.6852 O   0  0  0  0  0  0  0  0  0  0  0  0
    4.1286   -0.4459    1.8122 O   0  0  0  0  0  0  0  0  0  0  0  0
   -5.1769    0.0906    1.6259 H   0  0  0  0  0  0  0  0  0  0  0  0
   -3.1401   -0.6753   -2.2752 H   0  0  0  0  0  0  0  0  0  0  0  0
   -0.8366   -0.7438   -3.0494 H   0  0  0  0  0  0  0  0  0  0  0  0
    3.8249   -0.2418   -1.8834 H   0  0  0  0  0  0  0  0  0  0  0  0
    0.5442    0.4590    2.2043 H   0  0  0  0  0  0  0  0  0  0  0  0
   -1.8123    0.2548    1.7065 H   0  0  0  0  0  0  0  0  0  0  0  0
    4.7146   -0.1739    2.5472 H   0  0  0  0  0  0  0  0  0  0  0  0
  1  2  1  0
  2  3  2  0
  2  4  1  0
  4  5  2  0
  5  6  1  0
  6  7  2  0
  7  8  1  0
  8  9  1  0
  8 10  2  0
 10 11  1  0
 10 12  1  0
 12 13  2  0
 13 14  1  0
 14 15  2  0
 12 16  1  0
 16 17  2  0
 16 18  1  0
 15  4  1  0
 14  7  1  0
  1 19  1  0
  5 20  1  0
  6 21  1  0
 11 22  1  0
 13 23  1  0
 15 24  1  0
 18 25  1  0
M  END
>  <Unnamed: 0>  (44) 
592

>  <ID>  (44) 
TRAIN_0592

>  <Canonical_Smiles>  (44) 
OC(=O)c1ccc2c(Br)c(O)c(cc2c1)C(=O)O

>  <Inhibition>  (44) 
0.0

>  <TDC_conf_true_inhibitor>  (44) 
0

>  <TDC_conf_non_inhibitor>  (44) 
1

>  <split>  (44) 
1

$$$$
44
     RDKit          3D

 36 38  0  0  0  0  0  0  0  0999 V2000
   -2.2348   -2.2459   -1.6383 C   0  0  0  0  0  0  0  0  0  0  0  0
   -1.4770   -1.1676   -0.9513 C   0  0  0  0  0  0  0  0  0  0  0  0
   -0.1239   -0.9018   -1.0074 C   0  0  0  0  0  0  0  0  0  0  0  0
    0.1092    0.1492   -0.0868 C   0  0  0  0  0  0  0  0  0  0  0  0
   -1.0422    0.5122    0.4955 N   0  0  0  0  0  0  0  0  0  0  0  0
   -2.0100   -0.2561   -0.0478 N   0  0  0  0  0  0  0  0  0  0  0  0
   -3.3736    0.0039    0.2606 C   0  0  0  0  0  0  0  0  0  0  0  0
   -4.3249   -0.0512   -0.7746 C   0  0  0  0  0  0  0  0  0  0  0  0
   -5.6628    0.2513   -0.5185 C   0  0  0  0  0  0  0  0  0  0  0  0
   -6.8103    0.1874   -1.7985 Cl  0  0  0  0  0  0  0  0  0  0  0  0
   -6.0735    0.6144    0.7590 C   0  0  0  0  0  0  0  0  0  0  0  0
   -5.1370    0.6724    1.7917 C   0  0  0  0  0  0  0  0  0  0  0  0
   -3.7878    0.3699    1.5540 C   0  0  0  0  0  0  0  0  0  0  0  0
   -2.7668    0.3452    2.9513 Cl  0  0  0  0  0  0  0  0  0  0  0  0
    1.3899    0.8154    0.2512 C   0  0  0  0  0  0  0  0  0  0  0  0
    1.4255    1.9625    0.6844 O   0  0  0  0  0  0  0  0  0  0  0  0
    2.5022    0.0104    0.0345 N   0  0  0  0  0  0  0  0  0  0  0  0
    3.8597    0.3503    0.2089 C   0  0  0  0  0  0  0  0  0  0  0  0
    4.3106    1.6261    0.5615 C   0  0  0  0  0  0  0  0  0  0  0  0
    5.6788    1.8789    0.7076 C   0  0  0  0  0  0  0  0  0  0  0  0
    6.5946    0.8571    0.4990 C   0  0  0  0  0  0  0  0  0  0  0  0
    7.9039    1.1011    0.6384 F   0  0  0  0  0  0  0  0  0  0  0  0
    6.1690   -0.4157    0.1456 C   0  0  0  0  0  0  0  0  0  0  0  0
    4.8025   -0.6685   -0.0003 C   0  0  0  0  0  0  0  0  0  0  0  0
   -3.0532   -2.6276   -1.0206 H   0  0  0  0  0  0  0  0  0  0  0  0
   -1.5751   -3.0935   -1.8551 H   0  0  0  0  0  0  0  0  0  0  0  0
   -2.6366   -1.8913   -2.5920 H   0  0  0  0  0  0  0  0  0  0  0  0
    0.5958   -1.4123   -1.6321 H   0  0  0  0  0  0  0  0  0  0  0  0
   -4.0331   -0.2684   -1.7979 H   0  0  0  0  0  0  0  0  0  0  0  0
   -7.1149    0.8524    0.9601 H   0  0  0  0  0  0  0  0  0  0  0  0
   -5.4680    0.9438    2.7925 H   0  0  0  0  0  0  0  0  0  0  0  0
    2.3189   -0.9516   -0.2117 H   0  0  0  0  0  0  0  0  0  0  0  0
    3.6261    2.4520    0.7299 H   0  0  0  0  0  0  0  0  0  0  0  0
    6.0285    2.8689    0.9832 H   0  0  0  0  0  0  0  0  0  0  0  0
    6.9007   -1.2012   -0.0130 H   0  0  0  0  0  0  0  0  0  0  0  0
    4.4896   -1.6722   -0.2762 H   0  0  0  0  0  0  0  0  0  0  0  0
  1  2  1  0
  2  3  2  0
  3  4  1  0
  4  5  2  0
  5  6  1  0
  6  7  1  0
  7  8  2  0
  8  9  1  0
  9 10  1  0
  9 11  2  0
 11 12  1  0
 12 13  2  0
 13 14  1  0
  4 15  1  0
 15 16  2  0
 15 17  1  0
 17 18  1  0
 18 19  2  0
 19 20  1  0
 20 21  2  0
 21 22  1  0
 21 23  1  0
 23 24  2  0
  6  2  1  0
 13  7  1  0
 24 18  1  0
  1 25  1  0
  1 26  1  0
  1 27  1  0
  3 28  1  0
  8 29  1  0
 11 30  1  0
 12 31  1  0
 17 32  1  0
 19 33  1  0
 20 34  1  0
 23 35  1  0
 24 36  1  0
M  END
>  <Unnamed: 0>  (45) 
201

>  <ID>  (45) 
TRAIN_0201

>  <Canonical_Smiles>  (45) 
Cc1cc(nn1c2cc(Cl)ccc2Cl)C(=O)Nc3ccc(F)cc3

>  <Inhibition>  (45) 
31.6

>  <TDC_conf_true_inhibitor>  (45) 
0

>  <TDC_conf_non_inhibitor>  (45) 
1

>  <split>  (45) 
1

$$$$
45
     RDKit          3D

 55 57  0  0  0  0  0  0  0  0999 V2000
   -5.4482    0.5071    3.6695 C   0  0  0  0  0  0  0  0  0  0  0  0
   -5.7597   -0.0008    2.3802 O   0  0  0  0  0  0  0  0  0  0  0  0
   -4.7671    0.0383    1.4311 C   0  0  0  0  0  0  0  0  0  0  0  0
   -3.5675    0.7456    1.5668 C   0  0  0  0  0  0  0  0  0  0  0  0
   -2.6172    0.7519    0.5330 C   0  0  0  0  0  0  0  0  0  0  0  0
   -1.3231    1.5058    0.7039 C   0  0  0  0  0  0  0  0  0  0  0  0
   -0.6748    1.8350   -0.6400 C   0  0  0  0  0  0  0  0  0  0  0  0
   -0.5850    0.6445   -1.4853 N   0  0  0  0  0  0  0  0  0  0  0  0
   -1.8565   -0.0079   -1.7781 C   0  0  0  0  0  0  0  0  0  0  0  0
   -2.8511    0.0144   -0.6382 C   0  0  0  0  0  0  0  0  0  0  0  0
   -4.0583   -0.6867   -0.7757 C   0  0  0  0  0  0  0  0  0  0  0  0
   -5.0218   -0.6609    0.2387 C   0  0  0  0  0  0  0  0  0  0  0  0
   -6.2138   -1.3390    0.1567 O   0  0  0  0  0  0  0  0  0  0  0  0
   -6.7799   -1.4291   -1.1458 C   0  0  0  0  0  0  0  0  0  0  0  0
    0.4298    0.4167   -2.4006 C   0  0  0  0  0  0  0  0  0  0  0  0
    0.3026   -0.3382   -3.3612 O   0  0  0  0  0  0  0  0  0  0  0  0
    1.5959    1.0974   -2.1597 N   0  0  0  0  0  0  0  0  0  0  0  0
    2.7585    0.8918   -3.0077 C   0  0  0  0  0  0  0  0  0  0  0  0
    3.5102   -0.4059   -2.6941 C   0  0  0  0  0  0  0  0  0  0  0  0
    4.1258   -0.3936   -1.3137 C   0  0  0  0  0  0  0  0  0  0  0  0
    5.3309    0.2725   -1.0807 C   0  0  0  0  0  0  0  0  0  0  0  0
    5.8770    0.3153    0.2028 C   0  0  0  0  0  0  0  0  0  0  0  0
    5.2308   -0.3038    1.2826 C   0  0  0  0  0  0  0  0  0  0  0  0
    5.8589   -0.2404    2.6482 C   0  0  0  0  0  0  0  0  0  0  0  0
    4.0269   -0.9975    1.0551 C   0  0  0  0  0  0  0  0  0  0  0  0
    3.2941   -1.6889    2.1727 C   0  0  0  0  0  0  0  0  0  0  0  0
    3.4809   -1.0225   -0.2402 C   0  0  0  0  0  0  0  0  0  0  0  0
   -5.3456    1.5951    3.6458 H   0  0  0  0  0  0  0  0  0  0  0  0
   -4.5517    0.0354    4.0827 H   0  0  0  0  0  0  0  0  0  0  0  0
   -6.2807    0.2640    4.3344 H   0  0  0  0  0  0  0  0  0  0  0  0
   -3.3533    1.3140    2.4665 H   0  0  0  0  0  0  0  0  0  0  0  0
   -0.6424    0.8853    1.2999 H   0  0  0  0  0  0  0  0  0  0  0  0
   -1.4972    2.4392    1.2514 H   0  0  0  0  0  0  0  0  0  0  0  0
    0.3016    2.2912   -0.4632 H   0  0  0  0  0  0  0  0  0  0  0  0
   -1.2727    2.5747   -1.1902 H   0  0  0  0  0  0  0  0  0  0  0  0
   -2.2977    0.5225   -2.6346 H   0  0  0  0  0  0  0  0  0  0  0  0
   -1.6660   -1.0462   -2.0775 H   0  0  0  0  0  0  0  0  0  0  0  0
   -4.2269   -1.2632   -1.6810 H   0  0  0  0  0  0  0  0  0  0  0  0
   -6.7166   -0.4794   -1.6879 H   0  0  0  0  0  0  0  0  0  0  0  0
   -7.8397   -1.6793   -1.0323 H   0  0  0  0  0  0  0  0  0  0  0  0
   -6.3049   -2.2336   -1.7168 H   0  0  0  0  0  0  0  0  0  0  0  0
    1.8107    1.2274   -1.1821 H   0  0  0  0  0  0  0  0  0  0  0  0
    3.4076    1.7626   -2.8697 H   0  0  0  0  0  0  0  0  0  0  0  0
    2.4285    0.8800   -4.0520 H   0  0  0  0  0  0  0  0  0  0  0  0
    4.3072   -0.5503   -3.4317 H   0  0  0  0  0  0  0  0  0  0  0  0
    2.8450   -1.2707   -2.7947 H   0  0  0  0  0  0  0  0  0  0  0  0
    5.8575    0.7609   -1.8972 H   0  0  0  0  0  0  0  0  0  0  0  0
    6.8184    0.8375    0.3547 H   0  0  0  0  0  0  0  0  0  0  0  0
    5.1346    0.1144    3.3886 H   0  0  0  0  0  0  0  0  0  0  0  0
    6.7064    0.4526    2.6680 H   0  0  0  0  0  0  0  0  0  0  0  0
    6.2268   -1.2288    2.9419 H   0  0  0  0  0  0  0  0  0  0  0  0
    2.5115   -2.3514    1.7895 H   0  0  0  0  0  0  0  0  0  0  0  0
    3.9777   -2.3103    2.7598 H   0  0  0  0  0  0  0  0  0  0  0  0
    2.8217   -0.9484    2.8253 H   0  0  0  0  0  0  0  0  0  0  0  0
    2.5418   -1.5449   -0.4179 H   0  0  0  0  0  0  0  0  0  0  0  0
  1  2  1  0
  2  3  1  0
  3  4  2  0
  4  5  1  0
  5  6  1  0
  6  7  1  0
  7  8  1  0
  8  9  1  0
  9 10  1  0
 10 11  1  0
 11 12  2  0
 12 13  1  0
 13 14  1  0
  8 15  1  0
 15 16  2  0
 15 17  1  0
 17 18  1  0
 18 19  1  0
 19 20  1  0
 20 21  2  0
 21 22  1  0
 22 23  2  0
 23 24  1  0
 23 25  1  0
 25 26  1  0
 25 27  2  0
 12  3  1  0
 10  5  2  0
 27 20  1  0
  1 28  1  0
  1 29  1  0
  1 30  1  0
  4 31  1  0
  6 32  1  0
  6 33  1  0
  7 34  1  0
  7 35  1  0
  9 36  1  0
  9 37  1  0
 11 38  1  0
 14 39  1  0
 14 40  1  0
 14 41  1  0
 17 42  1  0
 18 43  1  0
 18 44  1  0
 19 45  1  0
 19 46  1  0
 21 47  1  0
 22 48  1  0
 24 49  1  0
 24 50  1  0
 24 51  1  0
 26 52  1  0
 26 53  1  0
 26 54  1  0
 27 55  1  0
M  END
>  <Unnamed: 0>  (46) 
209

>  <ID>  (46) 
TRAIN_0209

>  <Canonical_Smiles>  (46) 
COc1cc2CCN(Cc2cc1OC)C(=O)NCCc3ccc(C)c(C)c3

>  <Inhibition>  (46) 
59.5

>  <TDC_conf_true_inhibitor>  (46) 
1

>  <TDC_conf_non_inhibitor>  (46) 
0

>  <split>  (46) 
1

$$$$
46
     RDKit          3D

 66 68  0  0  0  0  0  0  0  0999 V2000
    1.6551    3.0161   -1.2622 C   0  0  0  0  0  0  0  0  0  0  0  0
    1.0637    1.8663   -0.4587 C   0  0  1  0  0  0  0  0  0  0  0  0
   -0.1515    1.3583   -1.0839 N   0  0  0  0  0  0  0  0  0  0  0  0
   -1.3819    1.9260   -0.8262 C   0  0  0  0  0  0  0  0  0  0  0  0
   -1.5032    2.9799   -0.2062 O   0  0  0  0  0  0  0  0  0  0  0  0
   -2.5635    1.1690   -1.4682 C   0  0  2  0  0  0  0  0  0  0  0  0
   -2.7870    1.6411   -2.9046 C   0  0  0  0  0  0  0  0  0  0  0  0
   -3.7559    2.8125   -2.7372 C   0  0  0  0  0  0  0  0  0  0  0  0
   -4.6470    2.3720   -1.5839 C   0  0  0  0  0  0  0  0  0  0  0  0
   -3.8154    1.4789   -0.8020 N   0  0  0  0  0  0  0  0  0  0  0  0
   -4.1568    0.8975    0.3881 C   0  0  0  0  0  0  0  0  0  0  0  0
   -3.4323    0.1070    0.9823 O   0  0  0  0  0  0  0  0  0  0  0  0
   -5.3857    1.2915    0.8072 O   0  0  0  0  0  0  0  0  0  0  0  0
   -5.8381    0.7099    2.0333 C   0  0  0  0  0  0  0  0  0  0  0  0
   -6.7182   -0.4776    1.7375 C   0  0  0  0  0  0  0  0  0  0  0  0
   -8.0539   -0.2960    1.3510 C   0  0  0  0  0  0  0  0  0  0  0  0
   -8.8628   -1.3967    1.0637 C   0  0  0  0  0  0  0  0  0  0  0  0
   -8.3422   -2.6874    1.1512 C   0  0  0  0  0  0  0  0  0  0  0  0
   -7.0118   -2.8782    1.5200 C   0  0  0  0  0  0  0  0  0  0  0  0
   -6.2017   -1.7787    1.8083 C   0  0  0  0  0  0  0  0  0  0  0  0
    2.0593    0.6964   -0.3557 C   0  0  0  0  0  0  0  0  0  0  0  0
    1.8652   -0.3852   -0.9123 O   0  0  0  0  0  0  0  0  0  0  0  0
    3.1763    0.9438    0.4035 N   0  0  0  0  0  0  0  0  0  0  0  0
    4.2198   -0.0626    0.6001 C   0  0  1  0  0  0  0  0  0  0  0  0
    5.1999   -0.0778   -0.5803 C   0  0  0  0  0  0  0  0  0  0  0  0
    6.1174   -1.2763   -0.5685 C   0  0  0  0  0  0  0  0  0  0  0  0
    7.4438   -1.1563   -0.1305 C   0  0  0  0  0  0  0  0  0  0  0  0
    8.2803   -2.2731   -0.1064 C   0  0  0  0  0  0  0  0  0  0  0  0
    7.7953   -3.5077   -0.5221 C   0  0  0  0  0  0  0  0  0  0  0  0
    8.6483   -4.5701   -0.4844 O   0  0  0  0  0  0  0  0  0  0  0  0
    6.4830   -3.6467   -0.9626 C   0  0  0  0  0  0  0  0  0  0  0  0
    5.6443   -2.5305   -0.9851 C   0  0  0  0  0  0  0  0  0  0  0  0
    4.9342    0.3265    1.8950 C   0  0  0  0  0  0  0  0  0  0  0  0
    5.2049    1.5045    2.1480 O   0  0  0  0  0  0  0  0  0  0  0  0
    5.2421   -0.7758    2.8731 C   0  0  0  0  0  0  0  0  0  0  0  0
    1.9619    2.6827   -2.2598 H   0  0  0  0  0  0  0  0  0  0  0  0
    2.5385    3.4330   -0.7680 H   0  0  0  0  0  0  0  0  0  0  0  0
    0.9291    3.8255   -1.3920 H   0  0  0  0  0  0  0  0  0  0  0  0
    0.8207    2.1992    0.5571 H   0  0  0  0  0  0  0  0  0  0  0  0
   -0.1063    0.3999   -1.4221 H   0  0  0  0  0  0  0  0  0  0  0  0
   -2.3688    0.0924   -1.4158 H   0  0  0  0  0  0  0  0  0  0  0  0
   -1.8707    1.9350   -3.4255 H   0  0  0  0  0  0  0  0  0  0  0  0
   -3.2752    0.8483   -3.4850 H   0  0  0  0  0  0  0  0  0  0  0  0
   -4.3235    3.0291   -3.6464 H   0  0  0  0  0  0  0  0  0  0  0  0
   -3.2012    3.7169   -2.4608 H   0  0  0  0  0  0  0  0  0  0  0  0
   -4.9963    3.2105   -0.9740 H   0  0  0  0  0  0  0  0  0  0  0  0
   -5.5134    1.8039   -1.9407 H   0  0  0  0  0  0  0  0  0  0  0  0
   -6.4215    1.4725    2.5628 H   0  0  0  0  0  0  0  0  0  0  0  0
   -5.0147    0.4446    2.7074 H   0  0  0  0  0  0  0  0  0  0  0  0
   -8.4682    0.7071    1.2686 H   0  0  0  0  0  0  0  0  0  0  0  0
   -9.8983   -1.2485    0.7692 H   0  0  0  0  0  0  0  0  0  0  0  0
   -8.9714   -3.5443    0.9248 H   0  0  0  0  0  0  0  0  0  0  0  0
   -6.6019   -3.8837    1.5793 H   0  0  0  0  0  0  0  0  0  0  0  0
   -5.1605   -1.9405    2.0811 H   0  0  0  0  0  0  0  0  0  0  0  0
    3.3351    1.8616    0.8139 H   0  0  0  0  0  0  0  0  0  0  0  0
    3.7298   -1.0336    0.7346 H   0  0  0  0  0  0  0  0  0  0  0  0
    4.6526   -0.0803   -1.5332 H   0  0  0  0  0  0  0  0  0  0  0  0
    5.7956    0.8453   -0.5941 H   0  0  0  0  0  0  0  0  0  0  0  0
    7.8380   -0.1953    0.1935 H   0  0  0  0  0  0  0  0  0  0  0  0
    9.3093   -2.1798    0.2316 H   0  0  0  0  0  0  0  0  0  0  0  0
    8.1847   -5.3507   -0.8298 H   0  0  0  0  0  0  0  0  0  0  0  0
    6.0969   -4.6063   -1.2926 H   0  0  0  0  0  0  0  0  0  0  0  0
    4.6185   -2.6437   -1.3345 H   0  0  0  0  0  0  0  0  0  0  0  0
    5.7994   -1.5771    2.3838 H   0  0  0  0  0  0  0  0  0  0  0  0
    4.3071   -1.1669    3.2848 H   0  0  0  0  0  0  0  0  0  0  0  0
    5.8510   -0.3775    3.6899 H   0  0  0  0  0  0  0  0  0  0  0  0
  1  2  1  0
  2  3  1  0
  3  4  1  0
  4  5  2  0
  4  6  1  0
  6  7  1  0
  7  8  1  0
  8  9  1  0
  9 10  1  0
 10 11  1  0
 11 12  2  0
 11 13  1  0
 13 14  1  0
 14 15  1  0
 15 16  2  0
 16 17  1  0
 17 18  2  0
 18 19  1  0
 19 20  2  0
  2 21  1  0
 21 22  2  0
 21 23  1  0
 23 24  1  0
 24 25  1  0
 25 26  1  0
 26 27  2  0
 27 28  1  0
 28 29  2  0
 29 30  1  0
 29 31  1  0
 31 32  2  0
 24 33  1  0
 33 34  2  0
 33 35  1  0
 10  6  1  0
 20 15  1  0
 32 26  1  0
  1 36  1  0
  1 37  1  0
  1 38  1  0
  2 39  1  1
  3 40  1  0
  6 41  1  6
  7 42  1  0
  7 43  1  0
  8 44  1  0
  8 45  1  0
  9 46  1  0
  9 47  1  0
 14 48  1  0
 14 49  1  0
 16 50  1  0
 17 51  1  0
 18 52  1  0
 19 53  1  0
 20 54  1  0
 23 55  1  0
 24 56  1  1
 25 57  1  0
 25 58  1  0
 27 59  1  0
 28 60  1  0
 30 61  1  0
 31 62  1  0
 32 63  1  0
 35 64  1  0
 35 65  1  0
 35 66  1  0
M  END
>  <Unnamed: 0>  (47) 
224

>  <ID>  (47) 
TRAIN_0224

>  <Canonical_Smiles>  (47) 
C[C@@H](NC(=O)[C@@H]1CCCN1C(=O)OCc2ccccc2)C(=O)N[C@@H](Cc3ccc(O)cc3)C(=O)C

>  <Inhibition>  (47) 
55.6

>  <TDC_conf_true_inhibitor>  (47) 
1

>  <TDC_conf_non_inhibitor>  (47) 
0

>  <split>  (47) 
1

$$$$
47
     RDKit          3D

 39 42  0  0  0  0  0  0  0  0999 V2000
   -3.1830   -0.9459   -3.7961 O   0  0  0  0  0  0  0  0  0  0  0  0
   -3.5287   -0.2396   -2.6957 C   0  0  0  0  0  0  0  0  0  0  0  0
   -4.4027    0.6116   -2.7691 O   0  0  0  0  0  0  0  0  0  0  0  0
   -2.7869   -0.5901   -1.4980 C   0  0  0  0  0  0  0  0  0  0  0  0
   -1.7929   -1.5485   -1.4134 C   0  0  0  0  0  0  0  0  0  0  0  0
   -1.3248   -1.5889   -0.1254 N   0  0  0  0  0  0  0  0  0  0  0  0
   -0.2774   -2.4972    0.3327 C   0  0  0  0  0  0  0  0  0  0  0  0
    1.0739   -1.9365    0.0820 C   0  0  0  0  0  0  0  0  0  0  0  0
    1.5959   -0.6847    0.3369 C   0  0  0  0  0  0  0  0  0  0  0  0
    2.8986   -0.7411   -0.1044 N   0  0  0  0  0  0  0  0  0  0  0  0
    3.1521   -1.9851   -0.5793 N   0  0  0  0  0  0  0  0  0  0  0  0
    2.0517   -2.7146   -0.4712 N   0  0  0  0  0  0  0  0  0  0  0  0
    3.8862    0.2666   -0.0992 C   0  0  0  0  0  0  0  0  0  0  0  0
    5.1712    0.0079   -0.5880 C   0  0  0  0  0  0  0  0  0  0  0  0
    6.1269    1.0212   -0.5692 C   0  0  0  0  0  0  0  0  0  0  0  0
    5.7644    2.2577   -0.0620 C   0  0  0  0  0  0  0  0  0  0  0  0
    4.5329    2.5389    0.4167 N   0  0  0  0  0  0  0  0  0  0  0  0
    3.6187    1.5394    0.3871 C   0  0  0  0  0  0  0  0  0  0  0  0
   -2.0055   -0.6730    0.6543 C   0  0  0  0  0  0  0  0  0  0  0  0
   -1.8851   -0.3538    2.0180 C   0  0  0  0  0  0  0  0  0  0  0  0
   -2.7186    0.6380    2.5430 C   0  0  0  0  0  0  0  0  0  0  0  0
   -3.6446    1.2902    1.7245 C   0  0  0  0  0  0  0  0  0  0  0  0
   -3.7611    0.9701    0.3626 C   0  0  0  0  0  0  0  0  0  0  0  0
   -2.9259   -0.0308   -0.1847 C   0  0  0  0  0  0  0  0  0  0  0  0
   -4.5107    2.3289    2.2986 N   0  0  0  0  0  4  0  0  0  0  0  0
   -4.3628    2.6023    3.4988 O   0  0  0  0  0  0  0  0  0  0  0  0
   -5.3373    2.8724    1.5530 O   0  0  0  0  0  1  0  0  0  0  0  0
   -3.7723   -0.5799   -4.4864 H   0  0  0  0  0  0  0  0  0  0  0  0
   -1.3821   -2.1980   -2.1780 H   0  0  0  0  0  0  0  0  0  0  0  0
   -0.4161   -3.4443   -0.2015 H   0  0  0  0  0  0  0  0  0  0  0  0
   -0.4277   -2.6958    1.3980 H   0  0  0  0  0  0  0  0  0  0  0  0
    1.1532    0.2010    0.7649 H   0  0  0  0  0  0  0  0  0  0  0  0
    5.4437   -0.9683   -0.9841 H   0  0  0  0  0  0  0  0  0  0  0  0
    7.1308    0.8489   -0.9420 H   0  0  0  0  0  0  0  0  0  0  0  0
    6.4749    3.0790   -0.0264 H   0  0  0  0  0  0  0  0  0  0  0  0
    2.6517    1.8332    0.7821 H   0  0  0  0  0  0  0  0  0  0  0  0
   -1.1684   -0.8554    2.6622 H   0  0  0  0  0  0  0  0  0  0  0  0
   -2.6307    0.8875    3.5995 H   0  0  0  0  0  0  0  0  0  0  0  0
   -4.4815    1.4768   -0.2767 H   0  0  0  0  0  0  0  0  0  0  0  0
  1  2  1  0
  2  3  2  0
  2  4  1  0
  4  5  2  0
  5  6  1  0
  6  7  1  0
  7  8  1  0
  8  9  2  0
  9 10  1  0
 10 11  1  0
 11 12  2  0
 10 13  1  0
 13 14  2  0
 14 15  1  0
 15 16  2  0
 16 17  1  0
 17 18  2  0
  6 19  1  0
 19 20  2  0
 20 21  1  0
 21 22  2  0
 22 23  1  0
 23 24  2  0
 22 25  1  0
 25 26  2  0
 25 27  1  0
 24  4  1  0
 12  8  1  0
 18 13  1  0
 24 19  1  0
  1 28  1  0
  5 29  1  0
  7 30  1  0
  7 31  1  0
  9 32  1  0
 14 33  1  0
 15 34  1  0
 16 35  1  0
 18 36  1  0
 20 37  1  0
 21 38  1  0
 23 39  1  0
M  CHG  2  25   1  27  -1
M  END
>  <Unnamed: 0>  (48) 
234

>  <ID>  (48) 
TRAIN_0234

>  <Canonical_Smiles>  (48) 
OC(=O)c1cn(Cc2cn(nn2)c3cccnc3)c4ccc(cc14)[N+](=O)[O-]

>  <Inhibition>  (48) 
26.1

>  <TDC_conf_true_inhibitor>  (48) 
0

>  <TDC_conf_non_inhibitor>  (48) 
1

>  <split>  (48) 
1

$$$$
48
     RDKit          3D

 52 55  0  0  0  0  0  0  0  0999 V2000
   -6.2308    2.2251   -0.3104 C   0  0  0  0  0  0  0  0  0  0  0  0
   -5.0654    1.5105    0.1842 N   0  0  0  0  0  0  0  0  0  0  0  0
   -3.8718    2.2121    0.2738 C   0  0  0  0  0  0  0  0  0  0  0  0
   -3.7298    3.3869   -0.0658 O   0  0  0  0  0  0  0  0  0  0  0  0
   -2.7481    1.4595    0.9302 C   0  0  0  0  0  0  0  0  0  0  0  0
   -2.7784   -0.0043    0.4990 C   0  0  0  0  0  0  0  0  0  0  0  0
   -2.4672   -0.1579   -1.0126 C   0  0  0  0  0  0  0  0  0  0  0  0
   -1.7093   -1.4456   -1.3158 C   0  0  0  0  0  0  0  0  0  0  0  0
   -0.4333   -1.4797   -0.6044 N   0  0  0  0  0  0  0  0  0  0  0  0
   -0.4002   -0.8964    0.7377 C   0  0  0  0  0  0  0  0  0  0  0  0
   -1.7888   -0.8265    1.3609 C   0  0  0  0  0  0  0  0  0  0  0  0
    0.6663   -2.0593   -1.2354 C   0  0  0  0  0  0  0  0  0  0  0  0
    0.6416   -2.5788   -2.3495 O   0  0  0  0  0  0  0  0  0  0  0  0
    1.9556   -2.0405   -0.5217 C   0  0  0  0  0  0  0  0  0  0  0  0
    2.3779   -3.1864    0.1534 C   0  0  0  0  0  0  0  0  0  0  0  0
    3.5906   -3.1638    0.8363 C   0  0  0  0  0  0  0  0  0  0  0  0
    4.3758   -2.0052    0.8259 C   0  0  0  0  0  0  0  0  0  0  0  0
    3.9684   -0.8486    0.1315 C   0  0  0  0  0  0  0  0  0  0  0  0
    2.7400   -0.8822   -0.5462 C   0  0  0  0  0  0  0  0  0  0  0  0
    4.8062    0.3615    0.1164 C   0  0  0  0  0  0  0  0  0  0  0  0
    5.2053    0.9470   -1.0998 C   0  0  0  0  0  0  0  0  0  0  0  0
    6.0071    2.0915   -1.1177 C   0  0  0  0  0  0  0  0  0  0  0  0
    6.4119    2.6616    0.0818 C   0  0  0  0  0  0  0  0  0  0  0  0
    7.1880    3.7540    0.0641 F   0  0  0  0  0  0  0  0  0  0  0  0
    6.0311    2.1099    1.2983 C   0  0  0  0  0  0  0  0  0  0  0  0
    5.2324    0.9628    1.3152 C   0  0  0  0  0  0  0  0  0  0  0  0
   -4.1151   -0.5566    0.7708 N   0  0  0  0  0  0  0  0  0  0  0  0
   -5.1470    0.1880    0.5654 C   0  0  0  0  0  0  0  0  0  0  0  0
   -6.3643   -0.3892    0.7469 N   0  0  0  0  0  0  0  0  0  0  0  0
   -6.7975    2.5951    0.5522 H   0  0  0  0  0  0  0  0  0  0  0  0
   -6.8698    1.5544   -0.8947 H   0  0  0  0  0  0  0  0  0  0  0  0
   -5.9466    3.0744   -0.9411 H   0  0  0  0  0  0  0  0  0  0  0  0
   -2.8828    1.5637    2.0146 H   0  0  0  0  0  0  0  0  0  0  0  0
   -1.7953    1.9304    0.6622 H   0  0  0  0  0  0  0  0  0  0  0  0
   -3.3839   -0.1318   -1.6138 H   0  0  0  0  0  0  0  0  0  0  0  0
   -1.8483    0.6837   -1.3514 H   0  0  0  0  0  0  0  0  0  0  0  0
   -2.2870   -2.3240   -1.0044 H   0  0  0  0  0  0  0  0  0  0  0  0
   -1.5430   -1.5305   -2.3952 H   0  0  0  0  0  0  0  0  0  0  0  0
    0.0329    0.1069    0.6467 H   0  0  0  0  0  0  0  0  0  0  0  0
    0.2593   -1.4854    1.3829 H   0  0  0  0  0  0  0  0  0  0  0  0
   -2.1618   -1.8541    1.4779 H   0  0  0  0  0  0  0  0  0  0  0  0
   -1.7210   -0.4190    2.3768 H   0  0  0  0  0  0  0  0  0  0  0  0
    1.7596   -4.0822    0.1554 H   0  0  0  0  0  0  0  0  0  0  0  0
    3.9297   -4.0459    1.3768 H   0  0  0  0  0  0  0  0  0  0  0  0
    5.3283   -2.0161    1.3543 H   0  0  0  0  0  0  0  0  0  0  0  0
    2.3837   -0.0084   -1.0873 H   0  0  0  0  0  0  0  0  0  0  0  0
    4.9047    0.5015   -2.0469 H   0  0  0  0  0  0  0  0  0  0  0  0
    6.3213    2.5318   -2.0601 H   0  0  0  0  0  0  0  0  0  0  0  0
    6.3576    2.5731    2.2245 H   0  0  0  0  0  0  0  0  0  0  0  0
    4.9350    0.5427    2.2745 H   0  0  0  0  0  0  0  0  0  0  0  0
   -6.2678   -1.2960    1.1962 H   0  0  0  0  0  0  0  0  0  0  0  0
   -7.0557    0.1864    1.2116 H   0  0  0  0  0  0  0  0  0  0  0  0
  1  2  1  0
  2  3  1  0
  3  4  2  0
  3  5  1  0
  5  6  1  0
  6  7  1  0
  7  8  1  0
  8  9  1  0
  9 10  1  0
 10 11  1  0
  9 12  1  0
 12 13  2  0
 12 14  1  0
 14 15  2  0
 15 16  1  0
 16 17  2  0
 17 18  1  0
 18 19  2  0
 18 20  1  0
 20 21  2  0
 21 22  1  0
 22 23  2  0
 23 24  1  0
 23 25  1  0
 25 26  2  0
  6 27  1  0
 27 28  2  0
 28 29  1  0
 28  2  1  0
 11  6  1  0
 19 14  1  0
 26 20  1  0
  1 30  1  0
  1 31  1  0
  1 32  1  0
  5 33  1  0
  5 34  1  0
  7 35  1  0
  7 36  1  0
  8 37  1  0
  8 38  1  0
 10 39  1  0
 10 40  1  0
 11 41  1  0
 11 42  1  0
 15 43  1  0
 16 44  1  0
 17 45  1  0
 19 46  1  0
 21 47  1  0
 22 48  1  0
 25 49  1  0
 26 50  1  0
 29 51  1  0
 29 52  1  0
M  END
>  <Unnamed: 0>  (49) 
238

>  <ID>  (49) 
TRAIN_0238

>  <Canonical_Smiles>  (49) 
CN1C(=O)CC2(CCN(CC2)C(=O)c3cccc(c3)c4ccc(F)cc4)N=C1N

>  <Inhibition>  (49) 
0.0

>  <TDC_conf_true_inhibitor>  (49) 
0

>  <TDC_conf_non_inhibitor>  (49) 
1

>  <split>  (49) 
1

$$$$
49
     RDKit          3D

 36 37  0  0  0  0  0  0  0  0999 V2000
    6.2529    1.6315   -1.4877 C   0  0  0  0  0  0  0  0  0  0  0  0
    5.1262    0.7687   -1.6476 O   0  0  0  0  0  0  0  0  0  0  0  0
    4.1479    0.9721   -0.7283 C   0  0  0  0  0  0  0  0  0  0  0  0
    4.1617    1.7958    0.1693 O   0  0  0  0  0  0  0  0  0  0  0  0
    3.0537    0.0136   -1.0207 C   0  0  0  0  0  0  0  0  0  0  0  0
    1.9513   -0.1638   -0.2661 C   0  0  0  0  0  0  0  0  0  0  0  0
    0.8733   -1.1382   -0.6918 C   0  0  0  0  0  0  0  0  0  0  0  0
   -0.5258   -0.5896   -0.3856 C   0  0  0  0  0  0  0  0  0  0  0  0
   -0.7019   -0.2392    1.0302 N   0  0  0  0  0  0  0  0  0  0  0  0
    0.5127   -0.0497    1.8263 C   0  0  0  0  0  0  0  0  0  0  0  0
    1.6598    0.5787    1.0240 C   0  0  0  0  0  0  0  0  0  0  0  0
   -1.9146   -0.3305    1.7109 C   0  0  0  0  0  0  0  0  0  0  0  0
   -2.0044   -0.3415    2.9362 O   0  0  0  0  0  0  0  0  0  0  0  0
   -3.1693   -0.4208    0.9307 C   0  0  0  0  0  0  0  0  0  0  0  0
   -4.0702   -1.4511    1.2228 C   0  0  0  0  0  0  0  0  0  0  0  0
   -5.2685   -1.5470    0.5147 C   0  0  0  0  0  0  0  0  0  0  0  0
   -5.5707   -0.6071   -0.4725 C   0  0  0  0  0  0  0  0  0  0  0  0
   -4.6783    0.4325   -0.7394 C   0  0  0  0  0  0  0  0  0  0  0  0
   -5.1020    1.7128   -2.0643 Br  0  0  0  0  0  0  0  0  0  0  0  0
   -3.4797    0.5390   -0.0375 C   0  0  0  0  0  0  0  0  0  0  0  0
    6.7245    1.4703   -0.5132 H   0  0  0  0  0  0  0  0  0  0  0  0
    5.9546    2.6779   -1.6065 H   0  0  0  0  0  0  0  0  0  0  0  0
    6.9793    1.3881   -2.2680 H   0  0  0  0  0  0  0  0  0  0  0  0
    3.1896   -0.5625   -1.9313 H   0  0  0  0  0  0  0  0  0  0  0  0
    0.9428   -1.3629   -1.7626 H   0  0  0  0  0  0  0  0  0  0  0  0
    1.0210   -2.0814   -0.1507 H   0  0  0  0  0  0  0  0  0  0  0  0
   -1.2767   -1.3303   -0.6792 H   0  0  0  0  0  0  0  0  0  0  0  0
   -0.7011    0.3227   -0.9677 H   0  0  0  0  0  0  0  0  0  0  0  0
    0.8075   -1.0365    2.2051 H   0  0  0  0  0  0  0  0  0  0  0  0
    0.2866    0.5762    2.6972 H   0  0  0  0  0  0  0  0  0  0  0  0
    2.5466    0.6020    1.6665 H   0  0  0  0  0  0  0  0  0  0  0  0
    1.3866    1.6117    0.7745 H   0  0  0  0  0  0  0  0  0  0  0  0
   -3.8383   -2.1722    2.0040 H   0  0  0  0  0  0  0  0  0  0  0  0
   -5.9692   -2.3481    0.7378 H   0  0  0  0  0  0  0  0  0  0  0  0
   -6.5081   -0.6864   -1.0178 H   0  0  0  0  0  0  0  0  0  0  0  0
   -2.7998    1.3652   -0.2248 H   0  0  0  0  0  0  0  0  0  0  0  0
  1  2  1  0
  2  3  1  0
  3  4  2  0
  3  5  1  0
  5  6  2  3
  6  7  1  0
  7  8  1  0
  8  9  1  0
  9 10  1  0
 10 11  1  0
  9 12  1  0
 12 13  2  0
 12 14  1  0
 14 15  2  0
 15 16  1  0
 16 17  2  0
 17 18  1  0
 18 19  1  0
 18 20  2  0
 11  6  1  0
 20 14  1  0
  1 21  1  0
  1 22  1  0
  1 23  1  0
  5 24  1  0
  7 25  1  0
  7 26  1  0
  8 27  1  0
  8 28  1  0
 10 29  1  0
 10 30  1  0
 11 31  1  0
 11 32  1  0
 15 33  1  0
 16 34  1  0
 17 35  1  0
 20 36  1  0
M  END
>  <Unnamed: 0>  (50) 
244

>  <ID>  (50) 
TRAIN_0244

>  <Canonical_Smiles>  (50) 
COC(=O)C=C1CCN(CC1)C(=O)c2cccc(Br)c2

>  <Inhibition>  (50) 
0.0

>  <TDC_conf_true_inhibitor>  (50) 
0

>  <TDC_conf_non_inhibitor>  (50) 
1

>  <split>  (50) 
1

$$$$
50
     RDKit          3D

 46 48  0  0  0  0  0  0  0  0999 V2000
    4.2715    1.8290   -1.5356 N   0  0  0  0  0  0  0  0  0  0  0  0
    4.6466    0.8252   -0.6213 C   0  0  0  0  0  0  0  0  0  0  0  0
    5.7463    0.0117   -0.9210 C   0  0  0  0  0  0  0  0  0  0  0  0
    6.0988   -1.0586   -0.0917 C   0  0  0  0  0  0  0  0  0  0  0  0
    5.3358   -1.3543    1.0361 C   0  0  0  0  0  0  0  0  0  0  0  0
    4.2015   -0.5971    1.3187 C   0  0  0  0  0  0  0  0  0  0  0  0
    3.8377    0.4577    0.4687 C   0  0  0  0  0  0  0  0  0  0  0  0
    2.6213    1.2343    0.7917 C   0  0  0  0  0  0  0  0  0  0  0  0
    2.7713    2.3974    1.1607 O   0  0  0  0  0  0  0  0  0  0  0  0
    1.3809    0.6177    0.6522 N   0  0  0  0  0  0  0  0  0  0  0  0
    1.1764   -0.6483   -0.0639 C   0  0  0  0  0  0  0  0  0  0  0  0
   -0.2776   -1.1473    0.0310 C   0  0  0  0  0  0  0  0  0  0  0  0
   -1.2606   -0.1753   -0.4826 N   0  0  0  0  0  0  0  0  0  0  0  0
   -0.8836    1.2231   -0.1928 C   0  0  0  0  0  0  0  0  0  0  0  0
    0.1703    1.3971    0.9179 C   0  0  0  0  0  0  0  0  0  0  0  0
   -2.6488   -0.5465   -0.1631 C   0  0  0  0  0  0  0  0  0  0  0  0
   -3.1036   -0.2612    1.2783 C   0  0  0  0  0  0  0  0  0  0  0  0
   -4.4901   -0.8530    1.5594 C   0  0  0  0  0  0  0  0  0  0  0  0
   -5.3813   -0.9526    0.3207 C   0  0  0  0  0  0  0  0  0  0  0  0
   -5.0735    0.1448   -0.6871 C   0  0  0  0  0  0  0  0  0  0  0  0
   -3.6240    0.0904   -1.1807 C   0  0  0  0  0  0  0  0  0  0  0  0
    3.7101    2.5563   -1.0861 H   0  0  0  0  0  0  0  0  0  0  0  0
    5.0578    2.2325   -2.0352 H   0  0  0  0  0  0  0  0  0  0  0  0
    6.3473    0.2118   -1.8047 H   0  0  0  0  0  0  0  0  0  0  0  0
    6.9715   -1.6615   -0.3307 H   0  0  0  0  0  0  0  0  0  0  0  0
    5.6189   -2.1783    1.6859 H   0  0  0  0  0  0  0  0  0  0  0  0
    3.5974   -0.8270    2.1926 H   0  0  0  0  0  0  0  0  0  0  0  0
    1.4556   -0.4842   -1.1120 H   0  0  0  0  0  0  0  0  0  0  0  0
    1.8448   -1.4117    0.3426 H   0  0  0  0  0  0  0  0  0  0  0  0
   -0.3657   -2.0807   -0.5372 H   0  0  0  0  0  0  0  0  0  0  0  0
   -0.4829   -1.3866    1.0816 H   0  0  0  0  0  0  0  0  0  0  0  0
   -1.7507    1.8516    0.0365 H   0  0  0  0  0  0  0  0  0  0  0  0
   -0.4632    1.6312   -1.1213 H   0  0  0  0  0  0  0  0  0  0  0  0
    0.4065    2.4596    1.0350 H   0  0  0  0  0  0  0  0  0  0  0  0
   -0.2316    1.0456    1.8756 H   0  0  0  0  0  0  0  0  0  0  0  0
   -2.7318   -1.6328   -0.3168 H   0  0  0  0  0  0  0  0  0  0  0  0
   -2.3968   -0.6639    2.0119 H   0  0  0  0  0  0  0  0  0  0  0  0
   -3.1475    0.8206    1.4541 H   0  0  0  0  0  0  0  0  0  0  0  0
   -4.3834   -1.8540    1.9949 H   0  0  0  0  0  0  0  0  0  0  0  0
   -4.9839   -0.2401    2.3234 H   0  0  0  0  0  0  0  0  0  0  0  0
   -5.2356   -1.9302   -0.1559 H   0  0  0  0  0  0  0  0  0  0  0  0
   -6.4341   -0.9080    0.6216 H   0  0  0  0  0  0  0  0  0  0  0  0
   -5.2580    1.1203   -0.2194 H   0  0  0  0  0  0  0  0  0  0  0  0
   -5.7550    0.0768   -1.5426 H   0  0  0  0  0  0  0  0  0  0  0  0
   -3.5800   -0.4904   -2.1117 H   0  0  0  0  0  0  0  0  0  0  0  0
   -3.3250    1.1093   -1.4544 H   0  0  0  0  0  0  0  0  0  0  0  0
  1  2  1  0
  2  3  2  0
  3  4  1  0
  4  5  2  0
  5  6  1  0
  6  7  2  0
  7  8  1  0
  8  9  2  0
  8 10  1  0
 10 11  1  0
 11 12  1  0
 12 13  1  0
 13 14  1  0
 14 15  1  0
 13 16  1  0
 16 17  1  0
 17 18  1  0
 18 19  1  0
 19 20  1  0
 20 21  1  0
  7  2  1  0
 15 10  1  0
 21 16  1  0
  1 22  1  0
  1 23  1  0
  3 24  1  0
  4 25  1  0
  5 26  1  0
  6 27  1  0
 11 28  1  0
 11 29  1  0
 12 30  1  0
 12 31  1  0
 14 32  1  0
 14 33  1  0
 15 34  1  0
 15 35  1  0
 16 36  1  0
 17 37  1  0
 17 38  1  0
 18 39  1  0
 18 40  1  0
 19 41  1  0
 19 42  1  0
 20 43  1  0
 20 44  1  0
 21 45  1  0
 21 46  1  0
M  END
>  <Unnamed: 0>  (51) 
245

>  <ID>  (51) 
TRAIN_0245

>  <Canonical_Smiles>  (51) 
Nc1ccccc1C(=O)N2CCN(CC2)C3CCCCC3

>  <Inhibition>  (51) 
0.0

>  <TDC_conf_true_inhibitor>  (51) 
0

>  <TDC_conf_non_inhibitor>  (51) 
1

>  <split>  (51) 
1

$$$$
51
     RDKit          3D

 50 53  0  0  0  0  0  0  0  0999 V2000
   -1.0268    2.9106    3.3480 O   0  0  0  0  0  0  0  0  0  0  0  0
   -1.1649    2.2525    2.1531 C   0  0  0  0  0  0  0  0  0  0  0  0
   -2.4053    1.6717    1.8961 C   0  0  0  0  0  0  0  0  0  0  0  0
   -2.6422    1.0219    0.6832 C   0  0  0  0  0  0  0  0  0  0  0  0
   -3.8976    0.4963    0.5536 O   0  0  0  0  0  0  0  0  0  0  0  0
   -4.2061   -0.1724   -0.6688 C   0  0  0  0  0  0  0  0  0  0  0  0
   -5.6027   -0.7425   -0.5860 C   0  0  0  0  0  0  0  0  0  0  0  0
   -5.9794   -1.5503    0.4987 C   0  0  0  0  0  0  0  0  0  0  0  0
   -7.2587   -2.1048    0.5614 C   0  0  0  0  0  0  0  0  0  0  0  0
   -8.1734   -1.8633   -0.4617 C   0  0  0  0  0  0  0  0  0  0  0  0
   -7.8103   -1.0671   -1.5473 C   0  0  0  0  0  0  0  0  0  0  0  0
   -6.5305   -0.5119   -1.6118 C   0  0  0  0  0  0  0  0  0  0  0  0
   -1.6262    0.9697   -0.2727 C   0  0  0  0  0  0  0  0  0  0  0  0
   -0.3745    1.5423   -0.0058 C   0  0  0  0  0  0  0  0  0  0  0  0
   -0.1198    2.1697    1.2218 C   0  0  0  0  0  0  0  0  0  0  0  0
    1.2013    2.7324    1.5128 C   0  0  0  0  0  0  0  0  0  0  0  0
    1.3034    3.9021    2.1738 N   0  0  0  0  0  0  0  0  0  0  0  0
    2.6258    4.1387    2.2199 N   0  0  0  0  0  0  0  0  0  0  0  0
    3.3776    3.1381    1.6888 C   0  0  0  0  0  0  0  0  0  0  0  0
    2.4976    2.1829    1.2420 C   0  0  0  0  0  0  0  0  0  0  0  0
    2.7950    0.9464    0.6861 N   0  0  0  0  0  0  0  0  0  0  0  0
    4.0685    0.4721    0.4001 C   0  0  0  0  0  0  0  0  0  0  0  0
    5.0976    1.1208    0.5412 O   0  0  0  0  0  0  0  0  0  0  0  0
    4.0022   -0.8311   -0.0752 N   0  0  0  0  0  0  0  0  0  0  0  0
    5.0663   -1.6426   -0.5238 C   0  0  0  0  0  0  0  0  0  0  0  0
    6.3882   -1.2096   -0.6400 C   0  0  0  0  0  0  0  0  0  0  0  0
    7.3831   -2.0826   -1.0936 C   0  0  0  0  0  0  0  0  0  0  0  0
    7.0649   -3.3936   -1.4389 C   0  0  0  0  0  0  0  0  0  0  0  0
    5.7482   -3.8352   -1.3332 C   0  0  0  0  0  0  0  0  0  0  0  0
    4.7546   -2.9639   -0.8787 C   0  0  0  0  0  0  0  0  0  0  0  0
   -0.2199    3.4673    3.2630 H   0  0  0  0  0  0  0  0  0  0  0  0
   -3.1949    1.7398    2.6403 H   0  0  0  0  0  0  0  0  0  0  0  0
   -4.1437    0.5405   -1.4999 H   0  0  0  0  0  0  0  0  0  0  0  0
   -3.5119   -1.0039   -0.8439 H   0  0  0  0  0  0  0  0  0  0  0  0
   -5.2754   -1.7417    1.3062 H   0  0  0  0  0  0  0  0  0  0  0  0
   -7.5414   -2.7215    1.4104 H   0  0  0  0  0  0  0  0  0  0  0  0
   -9.1704   -2.2926   -0.4112 H   0  0  0  0  0  0  0  0  0  0  0  0
   -8.5252   -0.8764   -2.3440 H   0  0  0  0  0  0  0  0  0  0  0  0
   -6.2669    0.1078   -2.4672 H   0  0  0  0  0  0  0  0  0  0  0  0
   -1.7752    0.5020   -1.2407 H   0  0  0  0  0  0  0  0  0  0  0  0
    0.3866    1.5172   -0.7826 H   0  0  0  0  0  0  0  0  0  0  0  0
    2.9499    5.0011    2.6469 H   0  0  0  0  0  0  0  0  0  0  0  0
    4.4575    3.1885    1.6977 H   0  0  0  0  0  0  0  0  0  0  0  0
    2.0077    0.3483    0.4941 H   0  0  0  0  0  0  0  0  0  0  0  0
    3.1017   -1.2841   -0.0276 H   0  0  0  0  0  0  0  0  0  0  0  0
    6.6837   -0.1950   -0.3892 H   0  0  0  0  0  0  0  0  0  0  0  0
    8.4098   -1.7302   -1.1770 H   0  0  0  0  0  0  0  0  0  0  0  0
    7.8421   -4.0676   -1.7898 H   0  0  0  0  0  0  0  0  0  0  0  0
    5.4947   -4.8579   -1.6007 H   0  0  0  0  0  0  0  0  0  0  0  0
    3.7356   -3.3388   -0.8028 H   0  0  0  0  0  0  0  0  0  0  0  0
  1  2  1  0
  2  3  2  0
  3  4  1  0
  4  5  1  0
  5  6  1  0
  6  7  1  0
  7  8  2  0
  8  9  1  0
  9 10  2  0
 10 11  1  0
 11 12  2  0
  4 13  2  0
 13 14  1  0
 14 15  2  0
 15 16  1  0
 16 17  2  0
 17 18  1  0
 18 19  1  0
 19 20  2  0
 20 21  1  0
 21 22  1  0
 22 23  2  0
 22 24  1  0
 24 25  1  0
 25 26  2  0
 26 27  1  0
 27 28  2  0
 28 29  1  0
 29 30  2  0
 15  2  1  0
 12  7  1  0
 20 16  1  0
 30 25  1  0
  1 31  1  0
  3 32  1  0
  6 33  1  0
  6 34  1  0
  8 35  1  0
  9 36  1  0
 10 37  1  0
 11 38  1  0
 12 39  1  0
 13 40  1  0
 14 41  1  0
 18 42  1  0
 19 43  1  0
 21 44  1  0
 24 45  1  0
 26 46  1  0
 27 47  1  0
 28 48  1  0
 29 49  1  0
 30 50  1  0
M  END
>  <Unnamed: 0>  (52) 
246

>  <ID>  (52) 
TRAIN_0246

>  <Canonical_Smiles>  (52) 
Oc1cc(OCc2ccccc2)ccc1c3n[nH]cc3NC(=O)Nc4ccccc4

>  <Inhibition>  (52) 
41.2

>  <TDC_conf_true_inhibitor>  (52) 
0

>  <TDC_conf_non_inhibitor>  (52) 
1

>  <split>  (52) 
1

$$$$
52
     RDKit          3D

 35 37  0  0  0  0  0  0  0  0999 V2000
    1.6379    3.9930   -0.3695 N   0  0  0  0  0  0  0  0  0  0  0  0
    0.7095    2.9766   -0.3601 C   0  0  0  0  0  0  0  0  0  0  0  0
   -0.5727    3.3182   -0.1730 N   0  0  0  0  0  0  0  0  0  0  0  0
   -1.4834    2.3205   -0.1560 C   0  0  0  0  0  0  0  0  0  0  0  0
   -3.0776    2.8822    0.1192 Cl  0  0  0  0  0  0  0  0  0  0  0  0
   -1.1397    1.0127   -0.3081 C   0  0  0  0  0  0  0  0  0  0  0  0
   -1.7972   -0.2305   -0.3272 N   0  0  0  0  0  0  0  0  0  0  0  0
   -3.2086   -0.4852   -0.2422 C   0  0  0  0  0  0  0  0  0  0  0  0
   -3.8121   -0.3711   -1.6104 C   0  0  0  0  0  0  0  0  0  0  0  0
   -4.8293    0.4371   -1.9370 C   0  0  0  0  0  0  0  0  0  0  0  0
   -0.8261   -1.2372   -0.5143 C   0  0  0  0  0  0  0  0  0  0  0  0
   -1.0202   -2.4401   -0.5799 O   0  0  0  0  0  0  0  0  0  0  0  0
    0.4066   -0.5817   -0.6118 N   0  0  0  0  0  0  0  0  0  0  0  0
    1.6914   -1.2103   -0.7444 C   0  0  0  0  0  0  0  0  0  0  0  0
    2.3540   -1.4319    0.5863 C   0  0  0  0  0  0  0  0  0  0  0  0
    2.0226   -2.5220    1.3963 C   0  0  0  0  0  0  0  0  0  0  0  0
    2.6452   -2.6781    2.6308 C   0  0  0  0  0  0  0  0  0  0  0  0
    3.5782   -1.7313    3.0193 C   0  0  0  0  0  0  0  0  0  0  0  0
    3.9176   -0.6600    2.2707 N   0  0  0  0  0  0  0  0  0  0  0  0
    3.2960   -0.5330    1.0762 C   0  0  0  0  0  0  0  0  0  0  0  0
    0.2099    0.7947   -0.4767 C   0  0  0  0  0  0  0  0  0  0  0  0
    1.1624    1.7292   -0.5052 N   0  0  0  0  0  0  0  0  0  0  0  0
    2.5504    3.6562   -0.0959 H   0  0  0  0  0  0  0  0  0  0  0  0
    1.2831    4.8086    0.1112 H   0  0  0  0  0  0  0  0  0  0  0  0
   -3.3594   -1.5102    0.1157 H   0  0  0  0  0  0  0  0  0  0  0  0
   -3.6709    0.1809    0.4907 H   0  0  0  0  0  0  0  0  0  0  0  0
   -3.3955   -1.0214   -2.3780 H   0  0  0  0  0  0  0  0  0  0  0  0
   -5.2994    1.0940   -1.2115 H   0  0  0  0  0  0  0  0  0  0  0  0
   -5.2200    0.4542   -2.9503 H   0  0  0  0  0  0  0  0  0  0  0  0
    2.3263   -0.6079   -1.4054 H   0  0  0  0  0  0  0  0  0  0  0  0
    1.5597   -2.1791   -1.2421 H   0  0  0  0  0  0  0  0  0  0  0  0
    1.2789   -3.2468    1.0705 H   0  0  0  0  0  0  0  0  0  0  0  0
    2.4063   -3.5168    3.2750 H   0  0  0  0  0  0  0  0  0  0  0  0
    4.0912   -1.8104    3.9734 H   0  0  0  0  0  0  0  0  0  0  0  0
    3.5849    0.3470    0.5066 H   0  0  0  0  0  0  0  0  0  0  0  0
  1  2  1  0
  2  3  2  0
  3  4  1  0
  4  5  1  0
  4  6  2  0
  6  7  1  0
  7  8  1  0
  8  9  1  0
  9 10  2  0
  7 11  1  0
 11 12  2  0
 11 13  1  0
 13 14  1  0
 14 15  1  0
 15 16  2  0
 16 17  1  0
 17 18  2  0
 18 19  1  0
 19 20  2  0
 13 21  1  0
 21 22  2  0
 22  2  1  0
 21  6  1  0
 20 15  1  0
  1 23  1  0
  1 24  1  0
  8 25  1  0
  8 26  1  0
  9 27  1  0
 10 28  1  0
 10 29  1  0
 14 30  1  0
 14 31  1  0
 16 32  1  0
 17 33  1  0
 18 34  1  0
 20 35  1  0
M  END
>  <Unnamed: 0>  (53) 
249

>  <ID>  (53) 
TRAIN_0249

>  <Canonical_Smiles>  (53) 
Nc1nc(Cl)c2N(CC=C)C(=O)N(Cc3cccnc3)c2n1

>  <Inhibition>  (53) 
24.9

>  <TDC_conf_true_inhibitor>  (53) 
1

>  <TDC_conf_non_inhibitor>  (53) 
0

>  <split>  (53) 
1

$$$$
53
     RDKit          3D

 44 46  0  0  0  0  0  0  0  0999 V2000
    5.2119    3.3800   -2.1488 F   0  0  0  0  0  0  0  0  0  0  0  0
    4.8890    3.4512   -0.8281 C   0  0  0  0  0  0  0  0  0  0  0  0
    3.8287    4.3030   -0.7472 F   0  0  0  0  0  0  0  0  0  0  0  0
    5.9272    4.0950   -0.2242 F   0  0  0  0  0  0  0  0  0  0  0  0
    4.6068    2.0953   -0.2332 C   0  0  0  0  0  0  0  0  0  0  0  0
    5.6310    1.3432    0.3575 C   0  0  0  0  0  0  0  0  0  0  0  0
    5.3624    0.0805    0.8855 C   0  0  0  0  0  0  0  0  0  0  0  0
    4.0707   -0.4495    0.8244 C   0  0  0  0  0  0  0  0  0  0  0  0
    3.0415    0.2815    0.2318 C   0  0  0  0  0  0  0  0  0  0  0  0
    1.7397   -0.1156    0.1027 O   0  0  0  0  0  0  0  0  0  0  0  0
    1.3961   -1.4080    0.6085 C   0  0  0  0  0  0  0  0  0  0  0  0
   -0.0768   -1.7279    0.4073 C   0  0  0  0  0  0  0  0  0  0  0  0
   -0.9449   -0.7807   -0.1837 C   0  0  0  0  0  0  0  0  0  0  0  0
   -2.3131   -1.0179   -0.4046 C   0  0  0  0  0  0  0  0  0  0  0  0
   -2.7950   -2.2712   -0.0117 C   0  0  0  0  0  0  0  0  0  0  0  0
   -1.9656   -3.2315    0.5786 C   0  0  0  0  0  0  0  0  0  0  0  0
   -0.6103   -2.9677    0.8037 C   0  0  0  0  0  0  0  0  0  0  0  0
    0.3786   -4.2590    1.5532 S   0  0  0  0  0  0  0  0  0  0  0  0
   -0.0193   -3.9069    3.1601 C   0  0  0  0  0  0  0  0  0  0  0  0
   -0.2782   -3.6685    4.2651 N   0  0  0  0  0  0  0  0  0  0  0  0
   -3.1334   -0.0677   -0.9829 N   0  0  0  0  0  0  0  0  0  0  0  0
   -4.4327   -0.4095   -1.5839 C   0  0  0  0  0  0  0  0  0  0  0  0
   -4.8107    0.6326   -2.6503 C   0  0  0  0  0  0  0  0  0  0  0  0
   -4.9121    1.9724   -2.1488 O   0  0  0  0  0  0  0  0  0  0  0  0
   -4.0654    2.2195   -1.0177 C   0  0  0  0  0  0  0  0  0  0  0  0
   -2.7869    1.3643   -0.9898 C   0  0  0  0  0  0  0  0  0  0  0  0
    3.3159    1.5469   -0.2955 C   0  0  0  0  0  0  0  0  0  0  0  0
    6.6439    1.7404    0.4103 H   0  0  0  0  0  0  0  0  0  0  0  0
    6.1623   -0.4949    1.3465 H   0  0  0  0  0  0  0  0  0  0  0  0
    3.9073   -1.4348    1.2483 H   0  0  0  0  0  0  0  0  0  0  0  0
    1.9859   -2.1631    0.0746 H   0  0  0  0  0  0  0  0  0  0  0  0
    1.6042   -1.4349    1.6850 H   0  0  0  0  0  0  0  0  0  0  0  0
   -0.5228    0.1688   -0.5055 H   0  0  0  0  0  0  0  0  0  0  0  0
   -3.8446   -2.5238   -0.1352 H   0  0  0  0  0  0  0  0  0  0  0  0
   -2.4033   -4.1861    0.8640 H   0  0  0  0  0  0  0  0  0  0  0  0
   -5.1952   -0.4317   -0.7966 H   0  0  0  0  0  0  0  0  0  0  0  0
   -4.3975   -1.3907   -2.0710 H   0  0  0  0  0  0  0  0  0  0  0  0
   -5.7752    0.3770   -3.1004 H   0  0  0  0  0  0  0  0  0  0  0  0
   -4.0663    0.6374   -3.4555 H   0  0  0  0  0  0  0  0  0  0  0  0
   -4.6608    2.0387   -0.1148 H   0  0  0  0  0  0  0  0  0  0  0  0
   -3.8060    3.2830   -1.0281 H   0  0  0  0  0  0  0  0  0  0  0  0
   -2.1767    1.5765   -1.8754 H   0  0  0  0  0  0  0  0  0  0  0  0
   -2.2195    1.6418   -0.0941 H   0  0  0  0  0  0  0  0  0  0  0  0
    2.5090    2.1124   -0.7605 H   0  0  0  0  0  0  0  0  0  0  0  0
  1  2  1  0
  2  3  1  0
  2  4  1  0
  2  5  1  0
  5  6  2  0
  6  7  1  0
  7  8  2  0
  8  9  1  0
  9 10  1  0
 10 11  1  0
 11 12  1  0
 12 13  2  0
 13 14  1  0
 14 15  2  0
 15 16  1  0
 16 17  2  0
 17 18  1  0
 18 19  1  0
 19 20  3  0
 14 21  1  0
 21 22  1  0
 22 23  1  0
 23 24  1  0
 24 25  1  0
 25 26  1  0
  9 27  2  0
 27  5  1  0
 17 12  1  0
 26 21  1  0
  6 28  1  0
  7 29  1  0
  8 30  1  0
 11 31  1  0
 11 32  1  0
 13 33  1  0
 15 34  1  0
 16 35  1  0
 22 36  1  0
 22 37  1  0
 23 38  1  0
 23 39  1  0
 25 40  1  0
 25 41  1  0
 26 42  1  0
 26 43  1  0
 27 44  1  0
M  END
>  <Unnamed: 0>  (54) 
254

>  <ID>  (54) 
TRAIN_0254

>  <Canonical_Smiles>  (54) 
FC(F)(F)c1cccc(OCc2cc(ccc2SC#N)N3CCOCC3)c1

>  <Inhibition>  (54) 
51.4

>  <TDC_conf_true_inhibitor>  (54) 
1

>  <TDC_conf_non_inhibitor>  (54) 
0

>  <split>  (54) 
1

$$$$
54
     RDKit          3D

 56 59  0  0  0  0  0  0  0  0999 V2000
   -4.4250    2.4170   -2.7888 C   0  0  0  0  0  0  0  0  0  0  0  0
   -3.5767    2.7514   -1.5579 C   0  0  0  0  0  0  0  0  0  0  0  0
   -2.3048    3.4636   -2.0341 C   0  0  0  0  0  0  0  0  0  0  0  0
   -4.3108    3.6888   -0.5889 C   0  0  0  0  0  0  0  0  0  0  0  0
   -3.1115    1.5498   -0.8836 O   0  0  0  0  0  0  0  0  0  0  0  0
   -4.0051    0.6563   -0.3790 C   0  0  0  0  0  0  0  0  0  0  0  0
   -5.2212    0.8153   -0.4403 O   0  0  0  0  0  0  0  0  0  0  0  0
   -3.4283   -0.4784    0.2153 N   0  0  0  0  0  0  0  0  0  0  0  0
   -4.3842   -1.4989    0.6525 C   0  0  0  0  0  0  0  0  0  0  0  0
   -3.8531   -2.3861    1.7675 C   0  0  0  0  0  0  0  0  0  0  0  0
   -2.5391   -2.9824    1.3187 C   0  0  0  0  0  0  0  0  0  0  0  0
   -1.6890   -1.9304    0.8257 N   0  0  0  0  0  0  0  0  0  0  0  0
   -0.3201   -1.9829    0.7419 C   0  0  0  0  0  0  0  0  0  0  0  0
    0.3649   -2.9184    1.1260 O   0  0  0  0  0  0  0  0  0  0  0  0
    0.0525   -0.7639    0.1434 N   0  0  0  0  0  0  0  0  0  0  0  0
   -1.0915   -0.0218   -0.1308 N   0  0  0  0  0  0  0  0  0  0  0  0
   -2.0782   -0.7651    0.2731 C   0  0  0  0  0  0  0  0  0  0  0  0
    1.3586   -0.2595   -0.1112 C   0  0  0  0  0  0  0  0  0  0  0  0
    2.4908   -0.9798    0.3188 C   0  0  0  0  0  0  0  0  0  0  0  0
    3.8057   -0.5131    0.1344 C   0  0  0  0  0  0  0  0  0  0  0  0
    3.9782    0.7093   -0.5217 C   0  0  0  0  0  0  0  0  0  0  0  0
    2.8774    1.4337   -0.9787 C   0  0  0  0  0  0  0  0  0  0  0  0
    1.5699    0.9797   -0.7559 C   0  0  0  0  0  0  0  0  0  0  0  0
    0.5231    1.6903   -1.3752 N   0  0  0  0  0  0  0  0  0  0  0  0
    4.9633   -1.2981    0.6045 C   0  0  0  0  0  0  0  0  0  0  0  0
    6.0604   -1.5495   -0.2383 C   0  0  0  0  0  0  0  0  0  0  0  0
    7.1568   -2.2962    0.2006 C   0  0  0  0  0  0  0  0  0  0  0  0
    7.1750   -2.8100    1.4961 C   0  0  0  0  0  0  0  0  0  0  0  0
    6.0971   -2.5762    2.3538 C   0  0  0  0  0  0  0  0  0  0  0  0
    5.0027   -1.8242    1.9086 C   0  0  0  0  0  0  0  0  0  0  0  0
    6.1086   -3.1043    3.6864 C   0  0  0  0  0  0  0  0  0  0  0  0
    6.1197   -3.5311    4.7665 N   0  0  0  0  0  0  0  0  0  0  0  0
   -3.9298    1.6547   -3.4048 H   0  0  0  0  0  0  0  0  0  0  0  0
   -5.4078    2.0181   -2.5212 H   0  0  0  0  0  0  0  0  0  0  0  0
   -4.5987    3.3055   -3.4036 H   0  0  0  0  0  0  0  0  0  0  0  0
   -1.6434    3.6837   -1.1913 H   0  0  0  0  0  0  0  0  0  0  0  0
   -1.7352    2.8281   -2.7226 H   0  0  0  0  0  0  0  0  0  0  0  0
   -2.5331    4.4041   -2.5435 H   0  0  0  0  0  0  0  0  0  0  0  0
   -4.6242    4.6114   -1.0907 H   0  0  0  0  0  0  0  0  0  0  0  0
   -5.1998    3.2322   -0.1428 H   0  0  0  0  0  0  0  0  0  0  0  0
   -3.6580    3.9616    0.2545 H   0  0  0  0  0  0  0  0  0  0  0  0
   -4.6255   -2.1069   -0.2283 H   0  0  0  0  0  0  0  0  0  0  0  0
   -5.3210   -1.0350    0.9825 H   0  0  0  0  0  0  0  0  0  0  0  0
   -3.6993   -1.7843    2.6707 H   0  0  0  0  0  0  0  0  0  0  0  0
   -4.5733   -3.1744    2.0114 H   0  0  0  0  0  0  0  0  0  0  0  0
   -2.0364   -3.5111    2.1374 H   0  0  0  0  0  0  0  0  0  0  0  0
   -2.6872   -3.6965    0.4986 H   0  0  0  0  0  0  0  0  0  0  0  0
    2.3704   -1.9421    0.8067 H   0  0  0  0  0  0  0  0  0  0  0  0
    4.9757    1.1100   -0.6936 H   0  0  0  0  0  0  0  0  0  0  0  0
    3.0456    2.3593   -1.5243 H   0  0  0  0  0  0  0  0  0  0  0  0
    0.6351    2.6937   -1.3428 H   0  0  0  0  0  0  0  0  0  0  0  0
   -0.3741    1.3818   -0.9871 H   0  0  0  0  0  0  0  0  0  0  0  0
    6.0612   -1.1735   -1.2603 H   0  0  0  0  0  0  0  0  0  0  0  0
    7.9908   -2.4803   -0.4725 H   0  0  0  0  0  0  0  0  0  0  0  0
    8.0310   -3.3918    1.8301 H   0  0  0  0  0  0  0  0  0  0  0  0
    4.1708   -1.6417    2.5879 H   0  0  0  0  0  0  0  0  0  0  0  0
  1  2  1  0
  2  3  1  0
  2  4  1  0
  2  5  1  0
  5  6  1  0
  6  7  2  0
  6  8  1  0
  8  9  1  0
  9 10  1  0
 10 11  1  0
 11 12  1  0
 12 13  1  0
 13 14  2  0
 13 15  1  0
 15 16  1  0
 16 17  2  0
 15 18  1  0
 18 19  2  0
 19 20  1  0
 20 21  2  0
 21 22  1  0
 22 23  2  0
 23 24  1  0
 20 25  1  0
 25 26  2  0
 26 27  1  0
 27 28  2  0
 28 29  1  0
 29 30  2  0
 29 31  1  0
 31 32  3  0
 17  8  1  0
 17 12  1  0
 23 18  1  0
 30 25  1  0
  1 33  1  0
  1 34  1  0
  1 35  1  0
  3 36  1  0
  3 37  1  0
  3 38  1  0
  4 39  1  0
  4 40  1  0
  4 41  1  0
  9 42  1  0
  9 43  1  0
 10 44  1  0
 10 45  1  0
 11 46  1  0
 11 47  1  0
 19 48  1  0
 21 49  1  0
 22 50  1  0
 24 51  1  0
 24 52  1  0
 26 53  1  0
 27 54  1  0
 28 55  1  0
 30 56  1  0
M  END
>  <Unnamed: 0>  (55) 
255

>  <ID>  (55) 
TRAIN_0255

>  <Canonical_Smiles>  (55) 
CC(C)(C)OC(=O)N1CCCN2C(=O)N(N=C12)c3cc(ccc3N)c4cccc(c4)C#N

>  <Inhibition>  (55) 
44.2

>  <TDC_conf_true_inhibitor>  (55) 
1

>  <TDC_conf_non_inhibitor>  (55) 
0

>  <split>  (55) 
1

$$$$
55
     RDKit          3D

 42 44  0  0  0  0  0  0  0  0999 V2000
   -4.9084    0.2271   -0.9700 C   0  0  0  0  0  0  0  0  0  0  0  0
   -3.5372    0.1865   -0.3451 C   0  0  0  0  0  0  0  0  0  0  0  0
   -2.4103   -0.2095   -1.1033 C   0  0  0  0  0  0  0  0  0  0  0  0
   -2.5103   -0.6053   -2.5487 C   0  0  0  0  0  0  0  0  0  0  0  0
   -1.1728   -0.2018   -0.4679 C   0  0  0  0  0  0  0  0  0  0  0  0
    0.0066   -0.5452   -1.0842 O   0  0  0  0  0  0  0  0  0  0  0  0
    0.9942   -0.6492   -0.0151 C   0  0  0  0  0  0  0  0  0  0  0  0
    1.1534   -2.1543    0.2800 C   0  0  0  0  0  0  0  0  0  0  0  0
    0.4314    0.1163    1.2065 C   0  0  0  0  0  0  0  0  0  0  0  0
   -1.0118    0.1628    0.8603 C   0  0  0  0  0  0  0  0  0  0  0  0
   -2.0966    0.5458    1.6356 C   0  0  0  0  0  0  0  0  0  0  0  0
   -1.9415    0.9248    3.0784 C   0  0  0  0  0  0  0  0  0  0  0  0
   -3.3610    0.5190    1.0230 C   0  0  0  0  0  0  0  0  0  0  0  0
   -4.4303    0.8341    1.8233 O   0  0  0  0  0  0  0  0  0  0  0  0
    2.3390   -0.0704   -0.4607 C   0  0  0  0  0  0  0  0  0  0  0  0
    2.5296    0.4332   -1.7557 C   0  0  0  0  0  0  0  0  0  0  0  0
    3.7523    0.9906   -2.1298 C   0  0  0  0  0  0  0  0  0  0  0  0
    4.8099    1.0340   -1.2217 C   0  0  0  0  0  0  0  0  0  0  0  0
    4.6739    0.4829    0.0519 C   0  0  0  0  0  0  0  0  0  0  0  0
    5.6958    0.6305    0.9978 N   0  0  0  0  0  0  0  0  0  0  0  0
    3.4253   -0.0171    0.4371 C   0  0  0  0  0  0  0  0  0  0  0  0
   -4.8702    0.3129   -2.0594 H   0  0  0  0  0  0  0  0  0  0  0  0
   -5.4629   -0.6800   -0.7111 H   0  0  0  0  0  0  0  0  0  0  0  0
   -5.4664    1.1041   -0.6249 H   0  0  0  0  0  0  0  0  0  0  0  0
   -3.3012   -1.3495   -2.6888 H   0  0  0  0  0  0  0  0  0  0  0  0
   -2.7208    0.2738   -3.1659 H   0  0  0  0  0  0  0  0  0  0  0  0
   -1.5857   -1.0599   -2.9185 H   0  0  0  0  0  0  0  0  0  0  0  0
    1.8525   -2.3449    1.1009 H   0  0  0  0  0  0  0  0  0  0  0  0
    0.1925   -2.6123    0.5414 H   0  0  0  0  0  0  0  0  0  0  0  0
    1.5171   -2.6862   -0.6075 H   0  0  0  0  0  0  0  0  0  0  0  0
    0.8143    1.1417    1.2700 H   0  0  0  0  0  0  0  0  0  0  0  0
    0.6286   -0.4030    2.1496 H   0  0  0  0  0  0  0  0  0  0  0  0
   -0.9050    1.1766    3.3235 H   0  0  0  0  0  0  0  0  0  0  0  0
   -2.5424    1.8092    3.3152 H   0  0  0  0  0  0  0  0  0  0  0  0
   -2.2548    0.0948    3.7193 H   0  0  0  0  0  0  0  0  0  0  0  0
   -5.2472    0.5298    1.4005 H   0  0  0  0  0  0  0  0  0  0  0  0
    1.7200    0.4175   -2.4827 H   0  0  0  0  0  0  0  0  0  0  0  0
    3.8758    1.4053   -3.1267 H   0  0  0  0  0  0  0  0  0  0  0  0
    5.7439    1.5015   -1.5207 H   0  0  0  0  0  0  0  0  0  0  0  0
    6.6217    0.7046    0.5879 H   0  0  0  0  0  0  0  0  0  0  0  0
    5.6620   -0.0509    1.7490 H   0  0  0  0  0  0  0  0  0  0  0  0
    3.2970   -0.3718    1.4572 H   0  0  0  0  0  0  0  0  0  0  0  0
  1  2  1  0
  2  3  2  0
  3  4  1  0
  3  5  1  0
  5  6  1  0
  6  7  1  0
  7  8  1  0
  7  9  1  0
  9 10  1  0
 10 11  1  0
 11 12  1  0
 11 13  2  0
 13 14  1  0
  7 15  1  0
 15 16  2  0
 16 17  1  0
 17 18  2  0
 18 19  1  0
 19 20  1  0
 19 21  2  0
 13  2  1  0
 10  5  2  0
 21 15  1  0
  1 22  1  0
  1 23  1  0
  1 24  1  0
  4 25  1  0
  4 26  1  0
  4 27  1  0
  8 28  1  0
  8 29  1  0
  8 30  1  0
  9 31  1  0
  9 32  1  0
 12 33  1  0
 12 34  1  0
 12 35  1  0
 14 36  1  0
 16 37  1  0
 17 38  1  0
 18 39  1  0
 20 40  1  0
 20 41  1  0
 21 42  1  0
M  END
>  <Unnamed: 0>  (56) 
270

>  <ID>  (56) 
TRAIN_0270

>  <Canonical_Smiles>  (56) 
Cc1c(C)c2OC(C)(Cc2c(C)c1O)c3cccc(N)c3

>  <Inhibition>  (56) 
88.8

>  <TDC_conf_true_inhibitor>  (56) 
1

>  <TDC_conf_non_inhibitor>  (56) 
0

>  <split>  (56) 
1

$$$$
56
     RDKit          3D

 49 51  0  0  0  0  0  0  0  0999 V2000
    5.8635   -1.0343   -0.9818 C   0  0  0  0  0  0  0  0  0  0  0  0
    4.5820   -0.9708   -0.2029 C   0  0  0  0  0  0  0  0  0  0  0  0
    4.3538    0.0777    0.6990 C   0  0  0  0  0  0  0  0  0  0  0  0
    3.1517    0.1547    1.4038 C   0  0  0  0  0  0  0  0  0  0  0  0
    2.1633   -0.8096    1.1875 C   0  0  0  0  0  0  0  0  0  0  0  0
    2.3791   -1.8635    0.2967 C   0  0  0  0  0  0  0  0  0  0  0  0
    3.5838   -1.9341   -0.4050 C   0  0  0  0  0  0  0  0  0  0  0  0
    0.6487   -0.7133    2.1017 S   0  0  0  0  0  6  0  0  0  0  0  0
   -0.1224   -1.9059    1.8370 O   0  0  0  0  0  0  0  0  0  0  0  0
    0.9973   -0.3358    3.4549 O   0  0  0  0  0  0  0  0  0  0  0  0
   -0.1428    0.6110    1.4597 N   0  0  0  0  0  0  0  0  0  0  0  0
   -0.6873    0.7846    0.0858 C   0  0  0  0  0  0  0  0  0  0  0  0
    0.4834    1.2142   -0.8259 C   0  0  0  0  0  0  0  0  0  0  0  0
   -1.8096    1.8901    0.1887 C   0  0  0  0  0  0  0  0  0  0  0  0
   -3.1164    1.6066   -0.5986 C   0  0  0  0  0  0  0  0  0  0  0  0
   -3.2423    0.1380   -1.0150 C   0  0  0  0  0  0  0  0  0  0  0  0
   -2.0080   -0.2305   -1.8686 C   0  0  0  0  0  0  0  0  0  0  0  0
   -1.3109   -0.5098   -0.4940 C   0  0  0  0  0  0  0  0  0  0  0  0
   -2.7590   -0.9610    0.0104 C   0  0  0  0  0  0  0  0  0  0  0  0
   -3.1939   -0.7606    1.4637 C   0  0  0  0  0  0  0  0  0  0  0  0
   -3.1264   -2.4127   -0.3702 C   0  0  0  0  0  0  0  0  0  0  0  0
   -1.2880    3.2800   -0.1143 C   0  0  0  0  0  0  0  0  0  0  0  0
   -1.4290    3.9199   -1.1415 O   0  0  0  0  0  0  0  0  0  0  0  0
   -0.5823    3.7945    0.9158 O   0  0  0  0  0  0  0  0  0  0  0  0
    6.1309   -2.0714   -1.2102 H   0  0  0  0  0  0  0  0  0  0  0  0
    5.7582   -0.4808   -1.9199 H   0  0  0  0  0  0  0  0  0  0  0  0
    6.6913   -0.6048   -0.4078 H   0  0  0  0  0  0  0  0  0  0  0  0
    5.1172    0.8355    0.8634 H   0  0  0  0  0  0  0  0  0  0  0  0
    2.9933    0.9606    2.1164 H   0  0  0  0  0  0  0  0  0  0  0  0
    1.6205   -2.6273    0.1411 H   0  0  0  0  0  0  0  0  0  0  0  0
    3.7432   -2.7508   -1.1064 H   0  0  0  0  0  0  0  0  0  0  0  0
   -0.0305    1.4525    2.0296 H   0  0  0  0  0  0  0  0  0  0  0  0
    1.1240    1.9610   -0.3434 H   0  0  0  0  0  0  0  0  0  0  0  0
    1.1174    0.3641   -1.0934 H   0  0  0  0  0  0  0  0  0  0  0  0
    0.1358    1.6398   -1.7725 H   0  0  0  0  0  0  0  0  0  0  0  0
   -2.1347    1.9661    1.2363 H   0  0  0  0  0  0  0  0  0  0  0  0
   -3.1956    2.2364   -1.4927 H   0  0  0  0  0  0  0  0  0  0  0  0
   -3.9744    1.8788    0.0295 H   0  0  0  0  0  0  0  0  0  0  0  0
   -4.2046   -0.0669   -1.4964 H   0  0  0  0  0  0  0  0  0  0  0  0
   -1.6067    0.5635   -2.5042 H   0  0  0  0  0  0  0  0  0  0  0  0
   -2.1291   -1.1031   -2.5195 H   0  0  0  0  0  0  0  0  0  0  0  0
   -0.5851   -1.3268   -0.5733 H   0  0  0  0  0  0  0  0  0  0  0  0
   -2.9425    0.2128    1.8774 H   0  0  0  0  0  0  0  0  0  0  0  0
   -4.2810   -0.8700    1.5538 H   0  0  0  0  0  0  0  0  0  0  0  0
   -2.7358   -1.5098    2.1175 H   0  0  0  0  0  0  0  0  0  0  0  0
   -2.8732   -2.6757   -1.3999 H   0  0  0  0  0  0  0  0  0  0  0  0
   -2.5989   -3.1216    0.2781 H   0  0  0  0  0  0  0  0  0  0  0  0
   -4.2026   -2.5803   -0.2498 H   0  0  0  0  0  0  0  0  0  0  0  0
   -0.3253    4.6889    0.6029 H   0  0  0  0  0  0  0  0  0  0  0  0
  1  2  1  0
  2  3  2  0
  3  4  1  0
  4  5  2  0
  5  6  1  0
  6  7  2  0
  5  8  1  0
  8  9  2  0
  8 10  2  0
  8 11  1  0
 11 12  1  0
 12 13  1  0
 12 14  1  0
 14 15  1  0
 15 16  1  0
 16 17  1  0
 17 18  1  0
 18 19  1  0
 19 20  1  0
 19 21  1  0
 14 22  1  0
 22 23  2  0
 22 24  1  0
  7  2  1  0
 18 12  1  0
 19 16  1  0
  1 25  1  0
  1 26  1  0
  1 27  1  0
  3 28  1  0
  4 29  1  0
  6 30  1  0
  7 31  1  0
 11 32  1  0
 13 33  1  0
 13 34  1  0
 13 35  1  0
 14 36  1  0
 15 37  1  0
 15 38  1  0
 16 39  1  0
 17 40  1  0
 17 41  1  0
 18 42  1  0
 20 43  1  0
 20 44  1  0
 20 45  1  0
 21 46  1  0
 21 47  1  0
 21 48  1  0
 24 49  1  0
M  END
>  <Unnamed: 0>  (57) 
294

>  <ID>  (57) 
TRAIN_0294

>  <Canonical_Smiles>  (57) 
Cc1ccc(cc1)S(=O)(=O)NC2(C)C(CC3CC2C3(C)C)C(=O)O

>  <Inhibition>  (57) 
6.04

>  <TDC_conf_true_inhibitor>  (57) 
0

>  <TDC_conf_non_inhibitor>  (57) 
1

>  <split>  (57) 
1

$$$$
57
     RDKit          3D

 53 55  0  0  0  0  0  0  0  0999 V2000
    5.9724    2.1197   -1.5319 C   0  0  0  0  0  0  0  0  0  0  0  0
    5.0832    1.4465   -0.5275 C   0  0  0  0  0  0  0  0  0  0  0  0
    4.1302    2.1853    0.1860 C   0  0  0  0  0  0  0  0  0  0  0  0
    3.2889    1.5549    1.1037 C   0  0  0  0  0  0  0  0  0  0  0  0
    3.3833    0.1741    1.2904 C   0  0  0  0  0  0  0  0  0  0  0  0
    4.3335   -0.5750    0.5913 C   0  0  0  0  0  0  0  0  0  0  0  0
    5.1735    0.0624   -0.3235 C   0  0  0  0  0  0  0  0  0  0  0  0
    2.3143   -0.6241    2.4681 S   0  0  0  0  0  6  0  0  0  0  0  0
    2.0417    0.3149    3.5325 O   0  0  0  0  0  0  0  0  0  0  0  0
    2.8952   -1.9197    2.7653 O   0  0  0  0  0  0  0  0  0  0  0  0
    0.9350   -0.8980    1.5736 N   0  0  0  0  0  0  0  0  0  0  0  0
    0.8745   -2.0775    0.6921 C   0  0  0  0  0  0  0  0  0  0  0  0
   -0.5025   -1.8827    0.0263 C   0  0  0  0  0  0  0  0  0  0  0  0
   -0.7982   -0.4687    0.2046 N   0  0  0  0  0  0  0  0  0  0  0  0
   -1.6678    0.1867   -0.6404 C   0  0  0  0  0  0  0  0  0  0  0  0
   -2.1606   -0.3484   -1.6283 O   0  0  0  0  0  0  0  0  0  0  0  0
   -1.8845    1.4748   -0.2830 O   0  0  0  0  0  0  0  0  0  0  0  0
   -2.7689    2.3392   -1.0405 C   0  0  0  0  0  0  0  0  0  0  0  0
   -2.2476    2.5559   -2.4651 C   0  0  0  0  0  0  0  0  0  0  0  0
   -4.2068    1.8095   -1.0294 C   0  0  0  0  0  0  0  0  0  0  0  0
   -2.7332    3.6818   -0.2951 C   0  0  0  0  0  0  0  0  0  0  0  0
    0.0419    0.1060    1.1472 C   0  0  0  0  0  0  0  0  0  0  0  0
    0.0694    1.2586    1.5343 O   0  0  0  0  0  0  0  0  0  0  0  0
   -1.6040   -2.7496    0.6222 C   0  0  0  0  0  0  0  0  0  0  0  0
   -2.5186   -3.3839   -0.2356 C   0  0  0  0  0  0  0  0  0  0  0  0
   -3.5502   -4.1732    0.2758 C   0  0  0  0  0  0  0  0  0  0  0  0
   -3.6881   -4.3352    1.6513 C   0  0  0  0  0  0  0  0  0  0  0  0
   -2.8006   -3.7012    2.5168 C   0  0  0  0  0  0  0  0  0  0  0  0
   -1.7686   -2.9094    2.0083 C   0  0  0  0  0  0  0  0  0  0  0  0
    6.9796    1.6906   -1.5044 H   0  0  0  0  0  0  0  0  0  0  0  0
    6.0690    3.1898   -1.3200 H   0  0  0  0  0  0  0  0  0  0  0  0
    5.5593    1.9975   -2.5380 H   0  0  0  0  0  0  0  0  0  0  0  0
    4.0421    3.2598    0.0392 H   0  0  0  0  0  0  0  0  0  0  0  0
    2.5656    2.1445    1.6652 H   0  0  0  0  0  0  0  0  0  0  0  0
    4.4330   -1.6457    0.7539 H   0  0  0  0  0  0  0  0  0  0  0  0
    5.9093   -0.5239   -0.8709 H   0  0  0  0  0  0  0  0  0  0  0  0
    1.6632   -2.0061   -0.0650 H   0  0  0  0  0  0  0  0  0  0  0  0
    0.9687   -3.0219    1.2343 H   0  0  0  0  0  0  0  0  0  0  0  0
   -0.4109   -2.1099   -1.0438 H   0  0  0  0  0  0  0  0  0  0  0  0
   -1.1906    2.8444   -2.4522 H   0  0  0  0  0  0  0  0  0  0  0  0
   -2.8157    3.3362   -2.9828 H   0  0  0  0  0  0  0  0  0  0  0  0
   -2.3170    1.6463   -3.0692 H   0  0  0  0  0  0  0  0  0  0  0  0
   -4.9026    2.5373   -1.4607 H   0  0  0  0  0  0  0  0  0  0  0  0
   -4.5296    1.5823   -0.0071 H   0  0  0  0  0  0  0  0  0  0  0  0
   -4.3060    0.8827   -1.6024 H   0  0  0  0  0  0  0  0  0  0  0  0
   -1.7111    4.0772   -0.2535 H   0  0  0  0  0  0  0  0  0  0  0  0
   -3.0601    3.5597    0.7441 H   0  0  0  0  0  0  0  0  0  0  0  0
   -3.3737    4.4301   -0.7738 H   0  0  0  0  0  0  0  0  0  0  0  0
   -2.4449   -3.2566   -1.3152 H   0  0  0  0  0  0  0  0  0  0  0  0
   -4.2511   -4.6557   -0.4010 H   0  0  0  0  0  0  0  0  0  0  0  0
   -4.4935   -4.9467    2.0499 H   0  0  0  0  0  0  0  0  0  0  0  0
   -2.9160   -3.8170    3.5923 H   0  0  0  0  0  0  0  0  0  0  0  0
   -1.1039   -2.4187    2.7168 H   0  0  0  0  0  0  0  0  0  0  0  0
  1  2  1  0
  2  3  2  0
  3  4  1  0
  4  5  2  0
  5  6  1  0
  6  7  2  0
  5  8  1  0
  8  9  2  0
  8 10  2  0
  8 11  1  0
 11 12  1  0
 12 13  1  0
 13 14  1  0
 14 15  1  0
 15 16  2  0
 15 17  1  0
 17 18  1  0
 18 19  1  0
 18 20  1  0
 18 21  1  0
 14 22  1  0
 22 23  2  0
 13 24  1  0
 24 25  2  0
 25 26  1  0
 26 27  2  0
 27 28  1  0
 28 29  2  0
  7  2  1  0
 22 11  1  0
 29 24  1  0
  1 30  1  0
  1 31  1  0
  1 32  1  0
  3 33  1  0
  4 34  1  0
  6 35  1  0
  7 36  1  0
 12 37  1  0
 12 38  1  0
 13 39  1  0
 19 40  1  0
 19 41  1  0
 19 42  1  0
 20 43  1  0
 20 44  1  0
 20 45  1  0
 21 46  1  0
 21 47  1  0
 21 48  1  0
 25 49  1  0
 26 50  1  0
 27 51  1  0
 28 52  1  0
 29 53  1  0
M  END
>  <Unnamed: 0>  (58) 
301

>  <ID>  (58) 
TRAIN_0301

>  <Canonical_Smiles>  (58) 
Cc1ccc(cc1)S(=O)(=O)N2CC(N(C(=O)OC(C)(C)C)C2=O)c3ccccc3

>  <Inhibition>  (58) 
45.6

>  <TDC_conf_true_inhibitor>  (58) 
1

>  <TDC_conf_non_inhibitor>  (58) 
0

>  <split>  (58) 
1

$$$$
58
     RDKit          3D

 38 40  0  0  0  0  0  0  0  0999 V2000
   -4.0373    4.6496    0.1346 Cl  0  0  0  0  0  0  0  0  0  0  0  0
   -2.7320    3.5266    0.2645 C   0  0  0  0  0  0  0  0  0  0  0  0
   -2.5578    2.6101   -0.7763 C   0  0  0  0  0  0  0  0  0  0  0  0
   -1.5231    1.6739   -0.7215 C   0  0  0  0  0  0  0  0  0  0  0  0
   -0.6585    1.6463    0.3772 C   0  0  0  0  0  0  0  0  0  0  0  0
   -0.8256    2.5683    1.4163 C   0  0  0  0  0  0  0  0  0  0  0  0
   -1.8627    3.5062    1.3616 C   0  0  0  0  0  0  0  0  0  0  0  0
   -2.0202    4.6066    2.6842 Cl  0  0  0  0  0  0  0  0  0  0  0  0
    0.3828    0.6585    0.3840 N   0  0  0  0  0  0  0  0  0  0  0  0
    0.1999   -0.6136    1.4701 S   0  0  0  0  0  6  0  0  0  0  0  0
   -0.2110   -0.1010    2.7629 O   0  0  0  0  0  0  0  0  0  0  0  0
    1.3054   -1.5430    1.3782 O   0  0  0  0  0  0  0  0  0  0  0  0
   -1.1995   -1.4555    0.7960 C   0  0  0  0  0  0  0  0  0  0  0  0
   -2.4644   -1.3537    1.3724 C   0  0  0  0  0  0  0  0  0  0  0  0
   -3.5223   -2.0406    0.7843 C   0  0  0  0  0  0  0  0  0  0  0  0
   -3.2666   -2.8003   -0.3480 C   0  0  0  0  0  0  0  0  0  0  0  0
   -2.0440   -2.9179   -0.9157 N   0  0  0  0  0  0  0  0  0  0  0  0
   -1.0260   -2.2511   -0.3220 C   0  0  0  0  0  0  0  0  0  0  0  0
    1.9411    1.2754    0.2090 S   0  0  0  0  0  6  0  0  0  0  0  0
    2.5080    1.4966    1.5261 O   0  0  0  0  0  0  0  0  0  0  0  0
    1.9128    2.3663   -0.7509 O   0  0  0  0  0  0  0  0  0  0  0  0
    2.8351   -0.0564   -0.5810 C   0  0  0  0  0  0  0  0  0  0  0  0
    4.1256   -0.3710   -0.1863 C   0  0  0  0  0  0  0  0  0  0  0  0
    4.7445   -1.4334   -0.8346 C   0  0  0  0  0  0  0  0  0  0  0  0
    4.0562   -2.1247   -1.8309 C   0  0  0  0  0  0  0  0  0  0  0  0
    2.7616   -1.7328   -2.1450 C   0  0  0  0  0  0  0  0  0  0  0  0
    2.1176   -0.7132   -1.5384 N   0  0  0  0  0  0  0  0  0  0  0  0
   -3.2224    2.6231   -1.6377 H   0  0  0  0  0  0  0  0  0  0  0  0
   -1.3932    0.9751   -1.5464 H   0  0  0  0  0  0  0  0  0  0  0  0
   -0.1547    2.5610    2.2743 H   0  0  0  0  0  0  0  0  0  0  0  0
   -2.6327   -0.7546    2.2640 H   0  0  0  0  0  0  0  0  0  0  0  0
   -4.5231   -1.9898    1.2004 H   0  0  0  0  0  0  0  0  0  0  0  0
   -4.0610   -3.3546   -0.8412 H   0  0  0  0  0  0  0  0  0  0  0  0
   -0.0560   -2.3816   -0.7939 H   0  0  0  0  0  0  0  0  0  0  0  0
    4.6319    0.1810    0.5983 H   0  0  0  0  0  0  0  0  0  0  0  0
    5.7557   -1.7266   -0.5640 H   0  0  0  0  0  0  0  0  0  0  0  0
    4.5199   -2.9574   -2.3499 H   0  0  0  0  0  0  0  0  0  0  0  0
    2.1962   -2.2515   -2.9153 H   0  0  0  0  0  0  0  0  0  0  0  0
  1  2  1  0
  2  3  2  0
  3  4  1  0
  4  5  2  0
  5  6  1  0
  6  7  2  0
  7  8  1  0
  5  9  1  0
  9 10  1  0
 10 11  2  0
 10 12  2  0
 10 13  1  0
 13 14  2  0
 14 15  1  0
 15 16  2  0
 16 17  1  0
 17 18  2  0
  9 19  1  0
 19 20  2  0
 19 21  2  0
 19 22  1  0
 22 23  2  0
 23 24  1  0
 24 25  2  0
 25 26  1  0
 26 27  2  0
  7  2  1  0
 18 13  1  0
 27 22  1  0
  3 28  1  0
  4 29  1  0
  6 30  1  0
 14 31  1  0
 15 32  1  0
 16 33  1  0
 18 34  1  0
 23 35  1  0
 24 36  1  0
 25 37  1  0
 26 38  1  0
M  END
>  <Unnamed: 0>  (59) 
313

>  <ID>  (59) 
TRAIN_0313

>  <Canonical_Smiles>  (59) 
Clc1ccc(cc1Cl)N(S(=O)(=O)c2cccnc2)S(=O)(=O)c3ccccn3

>  <Inhibition>  (59) 
58.0

>  <TDC_conf_true_inhibitor>  (59) 
1

>  <TDC_conf_non_inhibitor>  (59) 
0

>  <split>  (59) 
1

$$$$
59
     RDKit          3D

 53 56  0  0  0  0  0  0  0  0999 V2000
    2.2834    0.4212   -1.6310 C   0  0  0  0  0  0  0  0  0  0  0  0
    3.2332    0.4363   -0.5052 C   0  0  0  0  0  0  0  0  0  0  0  0
    4.5346    0.1428   -0.7914 O   0  0  0  0  0  0  0  0  0  0  0  0
    5.1915    0.2196    0.4155 C   0  0  0  0  0  0  0  0  0  0  0  0
    4.3920    0.5462    1.4182 N   0  0  0  0  0  0  0  0  0  0  0  0
    3.1403    0.6749    0.8493 C   0  0  0  0  0  0  0  0  0  0  0  0
    1.9469    1.0318    1.6694 C   0  0  0  0  0  0  0  0  0  0  0  0
    1.2442   -0.1187    2.1689 O   0  0  0  0  0  0  0  0  0  0  0  0
    0.3745   -0.6658    1.2673 C   0  0  0  0  0  0  0  0  0  0  0  0
    0.5643   -2.0032    0.9335 C   0  0  0  0  0  0  0  0  0  0  0  0
   -0.3073   -2.6255    0.0431 C   0  0  0  0  0  0  0  0  0  0  0  0
   -1.3789   -1.9139   -0.5029 C   0  0  0  0  0  0  0  0  0  0  0  0
   -1.5970   -0.5694   -0.1606 C   0  0  0  0  0  0  0  0  0  0  0  0
   -0.7111    0.0402    0.7487 C   0  0  0  0  0  0  0  0  0  0  0  0
   -2.7702    0.2447   -0.7007 C   0  0  0  0  0  0  0  0  0  0  0  0
   -3.3416   -0.2509   -2.0436 C   0  0  0  0  0  0  0  0  0  0  0  0
   -4.2464    0.8042   -2.6862 C   0  0  0  0  0  0  0  0  0  0  0  0
   -4.8475    1.7572   -1.6562 C   0  0  0  0  0  0  0  0  0  0  0  0
   -5.0790    1.0428   -0.3274 C   0  0  0  0  0  0  0  0  0  0  0  0
   -3.8391    0.5247    0.2924 N   0  0  0  0  0  0  0  0  0  0  0  0
   -4.1548   -0.6207    1.1814 C   0  0  0  0  0  0  0  0  0  0  0  0
   -5.1461   -0.2350    2.2698 C   0  0  0  0  0  0  0  0  0  0  0  0
   -6.3458   -0.4708    2.2664 O   0  0  0  0  0  0  0  0  0  0  0  0
   -4.5893    0.4547    3.2871 O   0  0  0  0  0  0  0  0  0  0  0  0
    6.5989   -0.0235    0.5790 C   0  0  0  0  0  0  0  0  0  0  0  0
    7.3199    0.0351    1.7572 C   0  0  0  0  0  0  0  0  0  0  0  0
    8.7020   -0.2620    1.5703 C   0  0  0  0  0  0  0  0  0  0  0  0
    8.9923   -0.5401    0.2539 C   0  0  0  0  0  0  0  0  0  0  0  0
    7.6058   -0.4388   -0.7439 S   0  0  0  0  0  0  0  0  0  0  0  0
    1.4606    1.1226   -1.4602 H   0  0  0  0  0  0  0  0  0  0  0  0
    1.8630   -0.5802   -1.7629 H   0  0  0  0  0  0  0  0  0  0  0  0
    2.7787    0.7083   -2.5635 H   0  0  0  0  0  0  0  0  0  0  0  0
    1.2894    1.7186    1.1236 H   0  0  0  0  0  0  0  0  0  0  0  0
    2.2867    1.5869    2.5519 H   0  0  0  0  0  0  0  0  0  0  0  0
    1.3942   -2.5574    1.3641 H   0  0  0  0  0  0  0  0  0  0  0  0
   -0.1562   -3.6692   -0.2208 H   0  0  0  0  0  0  0  0  0  0  0  0
   -2.0478   -2.4348   -1.1833 H   0  0  0  0  0  0  0  0  0  0  0  0
   -0.9007    1.0621    1.0698 H   0  0  0  0  0  0  0  0  0  0  0  0
   -2.3162    1.2213   -0.9309 H   0  0  0  0  0  0  0  0  0  0  0  0
   -2.5389   -0.5002   -2.7487 H   0  0  0  0  0  0  0  0  0  0  0  0
   -3.9173   -1.1733   -1.8907 H   0  0  0  0  0  0  0  0  0  0  0  0
   -3.6808    1.3873   -3.4231 H   0  0  0  0  0  0  0  0  0  0  0  0
   -5.0446    0.2967   -3.2412 H   0  0  0  0  0  0  0  0  0  0  0  0
   -4.1783    2.6137   -1.5043 H   0  0  0  0  0  0  0  0  0  0  0  0
   -5.7904    2.1656   -2.0379 H   0  0  0  0  0  0  0  0  0  0  0  0
   -5.7942    0.2294   -0.5116 H   0  0  0  0  0  0  0  0  0  0  0  0
   -5.5557    1.7421    0.3692 H   0  0  0  0  0  0  0  0  0  0  0  0
   -3.2717   -0.9921    1.7124 H   0  0  0  0  0  0  0  0  0  0  0  0
   -4.5691   -1.4668    0.6196 H   0  0  0  0  0  0  0  0  0  0  0  0
   -5.3434    0.6694    3.8718 H   0  0  0  0  0  0  0  0  0  0  0  0
    6.8689    0.2812    2.7120 H   0  0  0  0  0  0  0  0  0  0  0  0
    9.4420   -0.2718    2.3614 H   0  0  0  0  0  0  0  0  0  0  0  0
    9.9518   -0.7975   -0.1738 H   0  0  0  0  0  0  0  0  0  0  0  0
  1  2  1  0
  2  3  1  0
  3  4  1  0
  4  5  2  0
  5  6  1  0
  6  7  1  0
  7  8  1  0
  8  9  1  0
  9 10  2  0
 10 11  1  0
 11 12  2  0
 12 13  1  0
 13 14  2  0
 13 15  1  0
 15 16  1  0
 16 17  1  0
 17 18  1  0
 18 19  1  0
 19 20  1  0
 20 21  1  0
 21 22  1  0
 22 23  2  0
 22 24  1  0
  4 25  1  0
 25 26  2  0
 26 27  1  0
 27 28  2  0
 28 29  1  0
  6  2  2  0
 14  9  1  0
 20 15  1  0
 29 25  1  0
  1 30  1  0
  1 31  1  0
  1 32  1  0
  7 33  1  0
  7 34  1  0
 10 35  1  0
 11 36  1  0
 12 37  1  0
 14 38  1  0
 15 39  1  0
 16 40  1  0
 16 41  1  0
 17 42  1  0
 17 43  1  0
 18 44  1  0
 18 45  1  0
 19 46  1  0
 19 47  1  0
 21 48  1  0
 21 49  1  0
 24 50  1  0
 26 51  1  0
 27 52  1  0
 28 53  1  0
M  END
>  <Unnamed: 0>  (60) 
323

>  <ID>  (60) 
TRAIN_0323

>  <Canonical_Smiles>  (60) 
Cc1oc(nc1COc2cccc(c2)C3CCCCN3CC(=O)O)c4cccs4

>  <Inhibition>  (60) 
0.0

>  <TDC_conf_true_inhibitor>  (60) 
0

>  <TDC_conf_non_inhibitor>  (60) 
1

>  <split>  (60) 
1

$$$$
60
     RDKit          3D

 40 42  0  0  0  0  0  0  0  0999 V2000
   -4.3192   -0.5555    1.8318 C   0  0  0  0  0  0  0  0  0  0  0  0
   -3.7408   -1.5491    0.8275 C   0  0  0  0  0  0  0  0  0  0  0  0
   -2.2238   -1.3482    0.6392 C   0  0  0  0  0  0  0  0  0  0  0  0
   -1.9180   -0.1548   -0.1513 N   0  0  0  0  0  0  0  0  0  0  0  0
   -2.8453    0.1265   -1.2514 C   0  0  0  0  0  0  0  0  0  0  0  0
   -3.7663   -1.0704   -1.5418 C   0  0  0  0  0  0  0  0  0  0  0  0
   -4.7598   -0.7399   -2.6466 C   0  0  0  0  0  0  0  0  0  0  0  0
   -4.5177   -1.4440   -0.3796 O   0  0  0  0  0  0  0  0  0  0  0  0
   -0.7726    0.5732    0.1335 C   0  0  0  0  0  0  0  0  0  0  0  0
    0.0249    0.2057    1.0000 O   0  0  0  0  0  0  0  0  0  0  0  0
   -0.5057    1.8413   -0.6670 C   0  0  0  0  0  0  0  0  0  0  0  0
    0.6701    1.4788   -2.0044 S   0  0  0  0  0  0  0  0  0  0  0  0
    2.1486    1.4426   -1.0742 C   0  0  0  0  0  0  0  0  0  0  0  0
    2.5378    2.4682   -0.3463 N   0  0  0  0  0  0  0  0  0  0  0  0
    3.7342    2.2149    0.3013 N   0  0  0  0  0  0  0  0  0  0  0  0
    4.1802    1.0096    0.0199 C   0  0  0  0  0  0  0  0  0  0  0  0
    3.2187    0.1045   -1.0546 S   0  0  0  0  0  0  0  0  0  0  0  0
    5.3664    0.4878    0.5453 N   0  0  0  0  0  0  0  0  0  0  0  0
    5.9438   -0.7546    0.3264 C   0  0  0  0  0  0  0  0  0  0  0  0
    7.1171   -0.8482    1.0438 C   0  0  0  0  0  0  0  0  0  0  0  0
    7.2834    0.3684    1.7354 C   0  0  0  0  0  0  0  0  0  0  0  0
    6.2071    1.1649    1.4169 C   0  0  0  0  0  0  0  0  0  0  0  0
   -5.3865   -0.7485    1.9854 H   0  0  0  0  0  0  0  0  0  0  0  0
   -4.2380    0.4737    1.4668 H   0  0  0  0  0  0  0  0  0  0  0  0
   -3.8111   -0.6256    2.7984 H   0  0  0  0  0  0  0  0  0  0  0  0
   -3.9086   -2.5582    1.2212 H   0  0  0  0  0  0  0  0  0  0  0  0
   -1.8073   -2.1958    0.0808 H   0  0  0  0  0  0  0  0  0  0  0  0
   -1.7154   -1.3195    1.6089 H   0  0  0  0  0  0  0  0  0  0  0  0
   -3.4372    0.9959   -0.9419 H   0  0  0  0  0  0  0  0  0  0  0  0
   -2.2770    0.3943   -2.1472 H   0  0  0  0  0  0  0  0  0  0  0  0
   -3.1731   -1.9389   -1.8545 H   0  0  0  0  0  0  0  0  0  0  0  0
   -5.4129   -1.5973   -2.8421 H   0  0  0  0  0  0  0  0  0  0  0  0
   -5.4112    0.0903   -2.3520 H   0  0  0  0  0  0  0  0  0  0  0  0
   -4.2476   -0.4721   -3.5757 H   0  0  0  0  0  0  0  0  0  0  0  0
   -1.4244    2.2485   -1.0945 H   0  0  0  0  0  0  0  0  0  0  0  0
   -0.1196    2.6104    0.0104 H   0  0  0  0  0  0  0  0  0  0  0  0
    5.4760   -1.4819   -0.3228 H   0  0  0  0  0  0  0  0  0  0  0  0
    7.7784   -1.7053    1.0646 H   0  0  0  0  0  0  0  0  0  0  0  0
    8.0968    0.6396    2.3965 H   0  0  0  0  0  0  0  0  0  0  0  0
    5.9557    2.1688    1.7365 H   0  0  0  0  0  0  0  0  0  0  0  0
  1  2  1  0
  2  3  1  0
  3  4  1  0
  4  5  1  0
  5  6  1  0
  6  7  1  0
  6  8  1  0
  4  9  1  0
  9 10  2  0
  9 11  1  0
 11 12  1  0
 12 13  1  0
 13 14  2  0
 14 15  1  0
 15 16  2  0
 16 17  1  0
 16 18  1  0
 18 19  1  0
 19 20  2  0
 20 21  1  0
 21 22  2  0
  8  2  1  0
 17 13  1  0
 22 18  1  0
  1 23  1  0
  1 24  1  0
  1 25  1  0
  2 26  1  0
  3 27  1  0
  3 28  1  0
  5 29  1  0
  5 30  1  0
  6 31  1  0
  7 32  1  0
  7 33  1  0
  7 34  1  0
 11 35  1  0
 11 36  1  0
 19 37  1  0
 20 38  1  0
 21 39  1  0
 22 40  1  0
M  END
>  <Unnamed: 0>  (61) 
335

>  <ID>  (61) 
TRAIN_0335

>  <Canonical_Smiles>  (61) 
CC1CN(CC(C)O1)C(=O)CSc2nnc(s2)n3cccc3

>  <Inhibition>  (61) 
23.4

>  <TDC_conf_true_inhibitor>  (61) 
1

>  <TDC_conf_non_inhibitor>  (61) 
0

>  <split>  (61) 
1

$$$$
61
     RDKit          3D

 43 46  0  0  0  0  0  0  0  0999 V2000
   -4.2659   -1.0497    2.7988 O   0  0  0  0  0  0  0  0  0  0  0  0
   -5.2883   -1.1273    1.9274 C   0  0  0  0  0  0  0  0  0  0  0  0
   -6.4209   -1.3592    2.3063 O   0  0  0  0  0  0  0  0  0  0  0  0
   -4.8681   -0.9012    0.5231 C   0  0  0  0  0  0  0  0  0  0  0  0
   -5.8461   -0.9430   -0.4719 C   0  0  0  0  0  0  0  0  0  0  0  0
   -5.4858   -0.7329   -1.7986 C   0  0  0  0  0  0  0  0  0  0  0  0
   -4.1505   -0.4803   -2.1332 C   0  0  0  0  0  0  0  0  0  0  0  0
   -3.1486   -0.4320   -1.1548 C   0  0  0  0  0  0  0  0  0  0  0  0
   -3.5295   -0.6475    0.1802 C   0  0  0  0  0  0  0  0  0  0  0  0
   -1.7892   -0.1741   -1.4863 N   0  0  0  0  0  0  0  0  0  0  0  0
   -0.7386   -0.1196   -0.4777 C   0  0  0  0  0  0  0  0  0  0  0  0
    0.4991    0.1665   -1.2596 C   0  0  0  0  0  0  0  0  0  0  0  0
    1.8071    0.3355   -0.8225 C   0  0  0  0  0  0  0  0  0  0  0  0
    2.1170    0.2399    0.5440 N   0  0  0  0  0  0  0  0  0  0  0  0
    3.1710    0.8025    1.2871 C   0  0  0  0  0  0  0  0  0  0  0  0
    3.7339    2.0447    0.9678 C   0  0  0  0  0  0  0  0  0  0  0  0
    4.7935    2.5711    1.7116 C   0  0  0  0  0  0  0  0  0  0  0  0
    5.3101    1.8561    2.7900 C   0  0  0  0  0  0  0  0  0  0  0  0
    4.7631    0.6156    3.1255 C   0  0  0  0  0  0  0  0  0  0  0  0
    3.6991    0.0950    2.3761 C   0  0  0  0  0  0  0  0  0  0  0  0
    5.2889   -0.1275    4.2327 C   0  0  0  0  0  0  0  0  0  0  0  0
    5.7076   -0.7337    5.1294 N   0  0  0  0  0  0  0  0  0  0  0  0
    2.7614    0.6534   -1.8044 C   0  0  0  0  0  0  0  0  0  0  0  0
    2.4191    0.7724   -3.1665 C   0  0  0  0  0  0  0  0  0  0  0  0
    1.1036    0.5883   -3.5815 C   0  0  0  0  0  0  0  0  0  0  0  0
    0.1709    0.2901   -2.6073 C   0  0  0  0  0  0  0  0  0  0  0  0
   -1.2719    0.0688   -2.7630 C   0  0  0  0  0  0  0  0  0  0  0  0
   -1.8136    0.1124   -3.8525 O   0  0  0  0  0  0  0  0  0  0  0  0
   -4.6932   -1.2129    3.6666 H   0  0  0  0  0  0  0  0  0  0  0  0
   -6.8863   -1.1380   -0.2189 H   0  0  0  0  0  0  0  0  0  0  0  0
   -6.2403   -0.7651   -2.5813 H   0  0  0  0  0  0  0  0  0  0  0  0
   -3.9260   -0.3247   -3.1849 H   0  0  0  0  0  0  0  0  0  0  0  0
   -2.7947   -0.6214    0.9780 H   0  0  0  0  0  0  0  0  0  0  0  0
   -0.6620   -1.0880    0.0277 H   0  0  0  0  0  0  0  0  0  0  0  0
   -0.9469    0.6922    0.2270 H   0  0  0  0  0  0  0  0  0  0  0  0
    1.6451   -0.5265    1.0125 H   0  0  0  0  0  0  0  0  0  0  0  0
    3.3317    2.6337    0.1461 H   0  0  0  0  0  0  0  0  0  0  0  0
    5.2091    3.5414    1.4497 H   0  0  0  0  0  0  0  0  0  0  0  0
    6.1351    2.2731    3.3646 H   0  0  0  0  0  0  0  0  0  0  0  0
    3.2886   -0.8778    2.6408 H   0  0  0  0  0  0  0  0  0  0  0  0
    3.8060    0.7844   -1.5284 H   0  0  0  0  0  0  0  0  0  0  0  0
    3.1904    1.0076   -3.8965 H   0  0  0  0  0  0  0  0  0  0  0  0
    0.8150    0.6793   -4.6234 H   0  0  0  0  0  0  0  0  0  0  0  0
  1  2  1  0
  2  3  2  0
  2  4  1  0
  4  5  2  0
  5  6  1  0
  6  7  2  0
  7  8  1  0
  8  9  2  0
  8 10  1  0
 10 11  1  0
 11 12  1  0
 12 13  2  0
 13 14  1  0
 14 15  1  0
 15 16  2  0
 16 17  1  0
 17 18  2  0
 18 19  1  0
 19 20  2  0
 19 21  1  0
 21 22  3  0
 13 23  1  0
 23 24  2  0
 24 25  1  0
 25 26  2  0
 26 27  1  0
 27 28  2  0
  9  4  1  0
 27 10  1  0
 26 12  1  0
 20 15  1  0
  1 29  1  0
  5 30  1  0
  6 31  1  0
  7 32  1  0
  9 33  1  0
 11 34  1  0
 11 35  1  0
 14 36  1  0
 16 37  1  0
 17 38  1  0
 18 39  1  0
 20 40  1  0
 23 41  1  0
 24 42  1  0
 25 43  1  0
M  END
>  <Unnamed: 0>  (62) 
339

>  <ID>  (62) 
TRAIN_0339

>  <Canonical_Smiles>  (62) 
OC(=O)c1cccc(c1)N2Cc3c(Nc4cccc(c4)C#N)cccc3C2=O

>  <Inhibition>  (62) 
14.2

>  <TDC_conf_true_inhibitor>  (62) 
0

>  <TDC_conf_non_inhibitor>  (62) 
1

>  <split>  (62) 
1

$$$$
62
     RDKit          3D

 34 35  0  0  0  0  0  0  0  0999 V2000
    5.4392   -0.9132    1.3652 C   0  0  0  0  0  0  0  0  0  0  0  0
    4.7319   -1.1167    0.0395 C   0  0  0  0  0  0  0  0  0  0  0  0
    3.4658   -0.4515    0.1029 O   0  0  0  0  0  0  0  0  0  0  0  0
    2.7280   -0.5435   -1.0345 C   0  0  0  0  0  0  0  0  0  0  0  0
    3.0652   -1.1443   -2.0433 O   0  0  0  0  0  0  0  0  0  0  0  0
    1.4561    0.1637   -0.8805 C   0  0  0  0  0  0  0  0  0  0  0  0
    1.1715    1.2641   -0.1656 C   0  0  0  0  0  0  0  0  0  0  0  0
    2.0626    1.9828    0.5921 O   0  0  0  0  0  0  0  0  0  0  0  0
   -0.2492    1.7056   -0.2911 C   0  0  0  0  0  0  0  0  0  0  0  0
   -0.7447    0.7490   -1.2353 N   0  0  0  0  0  0  0  0  0  0  0  0
   -2.1363    0.6849   -1.6326 C   0  0  0  0  0  0  0  0  0  0  0  0
   -3.0220    0.1752   -0.5212 C   0  0  0  0  0  0  0  0  0  0  0  0
   -3.8927    1.0425    0.1576 C   0  0  0  0  0  0  0  0  0  0  0  0
   -4.6962    0.5642    1.1941 C   0  0  0  0  0  0  0  0  0  0  0  0
   -4.6292   -0.7771    1.5528 C   0  0  0  0  0  0  0  0  0  0  0  0
   -5.4003   -1.2315    2.5492 F   0  0  0  0  0  0  0  0  0  0  0  0
   -3.7745   -1.6519    0.8943 C   0  0  0  0  0  0  0  0  0  0  0  0
   -2.9706   -1.1770   -0.1425 C   0  0  0  0  0  0  0  0  0  0  0  0
    0.2010   -0.2055   -1.5635 C   0  0  0  0  0  0  0  0  0  0  0  0
    0.0196   -1.1865   -2.2613 O   0  0  0  0  0  0  0  0  0  0  0  0
    6.4158   -1.4052    1.3660 H   0  0  0  0  0  0  0  0  0  0  0  0
    4.8393   -1.3162    2.1879 H   0  0  0  0  0  0  0  0  0  0  0  0
    5.5801    0.1538    1.5670 H   0  0  0  0  0  0  0  0  0  0  0  0
    5.3348   -0.6903   -0.7701 H   0  0  0  0  0  0  0  0  0  0  0  0
    4.5789   -2.1872   -0.1376 H   0  0  0  0  0  0  0  0  0  0  0  0
    1.5973    2.7047    1.0502 H   0  0  0  0  0  0  0  0  0  0  0  0
   -0.7815    1.6206    0.6602 H   0  0  0  0  0  0  0  0  0  0  0  0
   -0.3395    2.7138   -0.7040 H   0  0  0  0  0  0  0  0  0  0  0  0
   -2.2409    0.0265   -2.5031 H   0  0  0  0  0  0  0  0  0  0  0  0
   -2.4415    1.6883   -1.9511 H   0  0  0  0  0  0  0  0  0  0  0  0
   -3.9537    2.0930   -0.1175 H   0  0  0  0  0  0  0  0  0  0  0  0
   -5.3748    1.2260    1.7228 H   0  0  0  0  0  0  0  0  0  0  0  0
   -3.7386   -2.6958    1.1892 H   0  0  0  0  0  0  0  0  0  0  0  0
   -2.3013   -1.8650   -0.6585 H   0  0  0  0  0  0  0  0  0  0  0  0
  1  2  1  0
  2  3  1  0
  3  4  1  0
  4  5  2  0
  4  6  1  0
  6  7  2  0
  7  8  1  0
  7  9  1  0
  9 10  1  0
 10 11  1  0
 11 12  1  0
 12 13  2  0
 13 14  1  0
 14 15  2  0
 15 16  1  0
 15 17  1  0
 17 18  2  0
 10 19  1  0
 19 20  2  0
 19  6  1  0
 18 12  1  0
  1 21  1  0
  1 22  1  0
  1 23  1  0
  2 24  1  0
  2 25  1  0
  8 26  1  0
  9 27  1  0
  9 28  1  0
 11 29  1  0
 11 30  1  0
 13 31  1  0
 14 32  1  0
 17 33  1  0
 18 34  1  0
M  END
>  <Unnamed: 0>  (63) 
345

>  <ID>  (63) 
TRAIN_0345

>  <Canonical_Smiles>  (63) 
CCOC(=O)C1=C(O)CN(Cc2ccc(F)cc2)C1=O

>  <Inhibition>  (63) 
22.5

>  <TDC_conf_true_inhibitor>  (63) 
0

>  <TDC_conf_non_inhibitor>  (63) 
1

>  <split>  (63) 
1

$$$$
63
     RDKit          3D

 40 42  0  0  0  0  0  0  0  0999 V2000
    4.5931   -1.5419   -0.6835 O   0  0  0  0  0  0  0  0  0  0  0  0
    4.6201   -0.2546   -1.1079 C   0  0  0  0  0  0  0  0  0  0  0  0
    5.5996    0.1421   -1.7170 O   0  0  0  0  0  0  0  0  0  0  0  0
    3.4120    0.5548   -0.7172 C   0  0  0  0  0  0  0  0  0  0  0  0
    3.6356    1.9024   -0.7872 N   0  0  0  0  0  0  0  0  0  0  0  0
    2.6172    2.7161   -0.4624 C   0  0  0  0  0  0  0  0  0  0  0  0
    1.3783    2.2551   -0.0722 C   0  0  0  0  0  0  0  0  0  0  0  0
    1.1684    0.8763   -0.0107 C   0  0  0  0  0  0  0  0  0  0  0  0
    2.1865   -0.0358   -0.3174 C   0  0  0  0  0  0  0  0  0  0  0  0
    1.9739   -1.4152   -0.3586 N   0  0  0  0  0  0  0  0  0  0  0  0
    0.8784   -2.1780    0.2490 C   0  0  0  0  0  0  0  0  0  0  0  0
   -0.4804   -1.9743   -0.4197 C   0  0  0  0  0  0  0  0  0  0  0  0
   -1.4028   -1.7564    0.6664 N   0  0  0  0  0  0  0  0  0  0  0  0
   -2.7897   -1.3940    0.4416 C   0  0  0  0  0  0  0  0  0  0  0  0
   -2.9325    0.0665    0.0798 C   0  0  0  0  0  0  0  0  0  0  0  0
   -3.0499    0.4661   -1.2608 C   0  0  0  0  0  0  0  0  0  0  0  0
   -3.1371    1.8205   -1.5875 C   0  0  0  0  0  0  0  0  0  0  0  0
   -3.1062    2.7743   -0.5771 C   0  0  0  0  0  0  0  0  0  0  0  0
   -3.1824    4.0734   -0.8940 F   0  0  0  0  0  0  0  0  0  0  0  0
   -2.9906    2.4011    0.7558 C   0  0  0  0  0  0  0  0  0  0  0  0
   -2.9019    1.0482    1.0848 C   0  0  0  0  0  0  0  0  0  0  0  0
   -0.7892   -1.6865    1.9006 C   0  0  0  0  0  0  0  0  0  0  0  0
   -1.3407   -1.4502    2.9647 O   0  0  0  0  0  0  0  0  0  0  0  0
    0.6876   -1.9295    1.7429 C   0  0  0  0  0  0  0  0  0  0  0  0
    5.4662   -1.8695   -0.9943 H   0  0  0  0  0  0  0  0  0  0  0  0
    2.8278    3.7796   -0.5303 H   0  0  0  0  0  0  0  0  0  0  0  0
    0.5800    2.9486    0.1715 H   0  0  0  0  0  0  0  0  0  0  0  0
    0.1786    0.5495    0.2841 H   0  0  0  0  0  0  0  0  0  0  0  0
    2.8721   -1.9152   -0.3163 H   0  0  0  0  0  0  0  0  0  0  0  0
    1.1467   -3.2353    0.1200 H   0  0  0  0  0  0  0  0  0  0  0  0
   -0.7947   -2.8718   -0.9635 H   0  0  0  0  0  0  0  0  0  0  0  0
   -0.5045   -1.1309   -1.1145 H   0  0  0  0  0  0  0  0  0  0  0  0
   -3.3691   -1.5975    1.3501 H   0  0  0  0  0  0  0  0  0  0  0  0
   -3.1938   -2.0381   -0.3477 H   0  0  0  0  0  0  0  0  0  0  0  0
   -3.0669   -0.2737   -2.0580 H   0  0  0  0  0  0  0  0  0  0  0  0
   -3.2259    2.1378   -2.6217 H   0  0  0  0  0  0  0  0  0  0  0  0
   -2.9682    3.1618    1.5295 H   0  0  0  0  0  0  0  0  0  0  0  0
   -2.8011    0.7579    2.1303 H   0  0  0  0  0  0  0  0  0  0  0  0
    0.9640   -2.8155    2.3236 H   0  0  0  0  0  0  0  0  0  0  0  0
    1.2416   -1.0681    2.1245 H   0  0  0  0  0  0  0  0  0  0  0  0
  1  2  1  0
  2  3  2  0
  2  4  1  0
  4  5  2  0
  5  6  1  0
  6  7  2  0
  7  8  1  0
  8  9  2  0
  9 10  1  0
 10 11  1  0
 11 12  1  0
 12 13  1  0
 13 14  1  0
 14 15  1  0
 15 16  2  0
 16 17  1  0
 17 18  2  0
 18 19  1  0
 18 20  1  0
 20 21  2  0
 13 22  1  0
 22 23  2  0
 22 24  1  0
  9  4  1  0
 24 11  1  0
 21 15  1  0
  1 25  1  0
  6 26  1  0
  7 27  1  0
  8 28  1  0
 10 29  1  0
 11 30  1  0
 12 31  1  0
 12 32  1  0
 14 33  1  0
 14 34  1  0
 16 35  1  0
 17 36  1  0
 20 37  1  0
 21 38  1  0
 24 39  1  0
 24 40  1  0
M  END
>  <Unnamed: 0>  (64) 
357

>  <ID>  (64) 
TRAIN_0357

>  <Canonical_Smiles>  (64) 
OC(=O)c1ncccc1NC2CN(Cc3ccc(F)cc3)C(=O)C2

>  <Inhibition>  (64) 
11.6

>  <TDC_conf_true_inhibitor>  (64) 
0

>  <TDC_conf_non_inhibitor>  (64) 
1

>  <split>  (64) 
1

$$$$
64
     RDKit          3D

 45 46  0  0  0  0  0  0  0  0999 V2000
   -6.8186    2.4324   -0.8543 C   0  0  0  0  0  0  0  0  0  0  0  0
   -6.3282    1.1363   -0.5083 O   0  0  0  0  0  0  0  0  0  0  0  0
   -5.0077    1.1170   -0.1622 C   0  0  0  0  0  0  0  0  0  0  0  0
   -4.2874    2.1042   -0.1043 O   0  0  0  0  0  0  0  0  0  0  0  0
   -4.5997   -0.2946    0.1939 C   0  0  0  0  0  0  0  0  0  0  0  0
   -3.1096   -0.4864    0.2124 C   0  0  0  0  0  0  0  0  0  0  0  0
   -2.3332   -0.4058    1.3552 C   0  0  0  0  0  0  0  0  0  0  0  0
   -2.9221   -0.1299    2.7074 C   0  0  0  0  0  0  0  0  0  0  0  0
   -0.9930   -0.5745    1.3288 N   0  0  0  0  0  0  0  0  0  0  0  0
   -0.4064   -0.8061    0.1481 C   0  0  0  0  0  0  0  0  0  0  0  0
    0.9654   -0.9907    0.0714 N   0  0  0  0  0  0  0  0  0  0  0  0
    1.7159   -0.2048    1.0277 C   0  0  0  0  0  0  0  0  0  0  0  0
    3.1885   -0.3024    0.6980 C   0  0  0  0  0  0  0  0  0  0  0  0
    3.8680    0.7749    0.1134 C   0  0  0  0  0  0  0  0  0  0  0  0
    5.2291    0.6766   -0.2000 C   0  0  0  0  0  0  0  0  0  0  0  0
    5.9270   -0.5025    0.0618 C   0  0  0  0  0  0  0  0  0  0  0  0
    7.2514   -0.7285   -0.1946 O   0  0  0  0  0  0  0  0  0  0  0  0
    7.9840    0.3405   -0.7793 C   0  0  0  0  0  0  0  0  0  0  0  0
    5.2511   -1.5811    0.6359 C   0  0  0  0  0  0  0  0  0  0  0  0
    3.8935   -1.4861    0.9500 C   0  0  0  0  0  0  0  0  0  0  0  0
   -1.0641   -0.8683   -1.0088 N   0  0  0  0  0  0  0  0  0  0  0  0
   -2.3965   -0.7027   -0.9532 C   0  0  0  0  0  0  0  0  0  0  0  0
   -3.1257   -0.7503   -2.1294 O   0  0  0  0  0  0  0  0  0  0  0  0
   -2.3212   -0.9555   -3.2870 C   0  0  0  0  0  0  0  0  0  0  0  0
   -6.2697    2.8347   -1.7116 H   0  0  0  0  0  0  0  0  0  0  0  0
   -7.8712    2.3328   -1.1335 H   0  0  0  0  0  0  0  0  0  0  0  0
   -6.7501    3.1087    0.0035 H   0  0  0  0  0  0  0  0  0  0  0  0
   -5.0404   -0.5403    1.1658 H   0  0  0  0  0  0  0  0  0  0  0  0
   -5.0453   -0.9887   -0.5293 H   0  0  0  0  0  0  0  0  0  0  0  0
   -3.4896    0.8058    2.6962 H   0  0  0  0  0  0  0  0  0  0  0  0
   -2.1345   -0.0314    3.4621 H   0  0  0  0  0  0  0  0  0  0  0  0
   -3.5768   -0.9519    3.0124 H   0  0  0  0  0  0  0  0  0  0  0  0
    1.2231   -0.8421   -0.8970 H   0  0  0  0  0  0  0  0  0  0  0  0
    1.4077    0.8491    1.0056 H   0  0  0  0  0  0  0  0  0  0  0  0
    1.5622   -0.5704    2.0512 H   0  0  0  0  0  0  0  0  0  0  0  0
    3.3421    1.7024   -0.1038 H   0  0  0  0  0  0  0  0  0  0  0  0
    5.7113    1.5384   -0.6487 H   0  0  0  0  0  0  0  0  0  0  0  0
    7.5846    0.6001   -1.7653 H   0  0  0  0  0  0  0  0  0  0  0  0
    9.0157    0.0027   -0.9169 H   0  0  0  0  0  0  0  0  0  0  0  0
    8.0050    1.2131   -0.1182 H   0  0  0  0  0  0  0  0  0  0  0  0
    5.7854   -2.5063    0.8371 H   0  0  0  0  0  0  0  0  0  0  0  0
    3.3827   -2.3426    1.3857 H   0  0  0  0  0  0  0  0  0  0  0  0
   -1.8062   -1.9216   -3.2461 H   0  0  0  0  0  0  0  0  0  0  0  0
   -2.9866   -0.9703   -4.1556 H   0  0  0  0  0  0  0  0  0  0  0  0
   -1.6100   -0.1340   -3.4269 H   0  0  0  0  0  0  0  0  0  0  0  0
  1  2  1  0
  2  3  1  0
  3  4  2  0
  3  5  1  0
  5  6  1  0
  6  7  2  0
  7  8  1  0
  7  9  1  0
  9 10  2  0
 10 11  1  0
 11 12  1  0
 12 13  1  0
 13 14  2  0
 14 15  1  0
 15 16  2  0
 16 17  1  0
 17 18  1  0
 16 19  1  0
 19 20  2  0
 10 21  1  0
 21 22  2  0
 22 23  1  0
 23 24  1  0
 22  6  1  0
 20 13  1  0
  1 25  1  0
  1 26  1  0
  1 27  1  0
  5 28  1  0
  5 29  1  0
  8 30  1  0
  8 31  1  0
  8 32  1  0
 11 33  1  0
 12 34  1  0
 12 35  1  0
 14 36  1  0
 15 37  1  0
 18 38  1  0
 18 39  1  0
 18 40  1  0
 19 41  1  0
 20 42  1  0
 24 43  1  0
 24 44  1  0
 24 45  1  0
M  END
>  <Unnamed: 0>  (65) 
363

>  <ID>  (65) 
TRAIN_0363

>  <Canonical_Smiles>  (65) 
COC(=O)Cc1c(C)nc(NCc2ccc(OC)cc2)nc1OC

>  <Inhibition>  (65) 
54.1

>  <TDC_conf_true_inhibitor>  (65) 
1

>  <TDC_conf_non_inhibitor>  (65) 
0

>  <split>  (65) 
1

$$$$
65
     RDKit          3D

 38 40  0  0  0  0  0  0  0  0999 V2000
    3.5802   -3.4267    2.3349 O   0  0  0  0  0  0  0  0  0  0  0  0
    4.2931   -2.9234    1.3162 C   0  0  0  0  0  0  0  0  0  0  0  0
    5.2892   -3.4835    0.8951 O   0  0  0  0  0  0  0  0  0  0  0  0
    3.7633   -1.6630    0.7787 C   0  0  0  0  0  0  0  0  0  0  0  0
    2.6687   -1.0526    1.2587 C   0  0  0  0  0  0  0  0  0  0  0  0
    2.1287    0.2016    0.7148 C   0  0  0  0  0  0  0  0  0  0  0  0
    2.9555    1.2492    0.3009 C   0  0  0  0  0  0  0  0  0  0  0  0
    2.3974    2.4303   -0.1841 C   0  0  0  0  0  0  0  0  0  0  0  0
    1.0110    2.5733   -0.2615 C   0  0  0  0  0  0  0  0  0  0  0  0
    0.5776    3.7857   -0.7222 O   0  0  0  0  0  0  0  0  0  0  0  0
   -0.7457    3.7456   -1.2149 C   0  0  0  0  0  0  0  0  0  0  0  0
   -1.7697    2.8973   -0.4726 C   0  0  0  0  0  0  0  0  0  0  0  0
   -2.9675    3.1829   -0.5001 O   0  0  0  0  0  0  0  0  0  0  0  0
   -1.2562    1.7591    0.1375 N   0  0  0  0  0  0  0  0  0  0  0  0
   -2.1914    0.8229    0.7599 C   0  0  0  0  0  0  0  0  0  0  0  0
   -2.4971   -0.3993   -0.0824 C   0  0  0  0  0  0  0  0  0  0  0  0
   -2.4184   -1.6829    0.4810 C   0  0  0  0  0  0  0  0  0  0  0  0
   -2.7151   -2.8149   -0.2805 C   0  0  0  0  0  0  0  0  0  0  0  0
   -3.1084   -2.6782   -1.6096 C   0  0  0  0  0  0  0  0  0  0  0  0
   -3.2130   -1.4099   -2.1757 C   0  0  0  0  0  0  0  0  0  0  0  0
   -2.9157   -0.2770   -1.4157 C   0  0  0  0  0  0  0  0  0  0  0  0
    0.1547    1.5522    0.1730 C   0  0  0  0  0  0  0  0  0  0  0  0
    0.7342    0.3720    0.6648 C   0  0  0  0  0  0  0  0  0  0  0  0
    4.0601   -4.2480    2.5696 H   0  0  0  0  0  0  0  0  0  0  0  0
    4.3288   -1.2663   -0.0570 H   0  0  0  0  0  0  0  0  0  0  0  0
    2.1082   -1.4914    2.0816 H   0  0  0  0  0  0  0  0  0  0  0  0
    4.0380    1.1683    0.3624 H   0  0  0  0  0  0  0  0  0  0  0  0
    3.0440    3.2453   -0.5001 H   0  0  0  0  0  0  0  0  0  0  0  0
   -0.7250    3.4105   -2.2593 H   0  0  0  0  0  0  0  0  0  0  0  0
   -1.1147    4.7773   -1.2104 H   0  0  0  0  0  0  0  0  0  0  0  0
   -1.7964    0.5406    1.7436 H   0  0  0  0  0  0  0  0  0  0  0  0
   -3.1447    1.3250    0.9669 H   0  0  0  0  0  0  0  0  0  0  0  0
   -2.1246   -1.8129    1.5203 H   0  0  0  0  0  0  0  0  0  0  0  0
   -2.6444   -3.8039    0.1648 H   0  0  0  0  0  0  0  0  0  0  0  0
   -3.3422   -3.5588   -2.2020 H   0  0  0  0  0  0  0  0  0  0  0  0
   -3.5332   -1.3002   -3.2087 H   0  0  0  0  0  0  0  0  0  0  0  0
   -3.0239    0.7043   -1.8723 H   0  0  0  0  0  0  0  0  0  0  0  0
    0.1143   -0.4506    1.0045 H   0  0  0  0  0  0  0  0  0  0  0  0
  1  2  1  0
  2  3  2  0
  2  4  1  0
  4  5  2  0
  5  6  1  0
  6  7  2  0
  7  8  1  0
  8  9  2  0
  9 10  1  0
 10 11  1  0
 11 12  1  0
 12 13  2  0
 12 14  1  0
 14 15  1  0
 15 16  1  0
 16 17  2  0
 17 18  1  0
 18 19  2  0
 19 20  1  0
 20 21  2  0
 14 22  1  0
 22 23  2  0
 23  6  1  0
 22  9  1  0
 21 16  1  0
  1 24  1  0
  4 25  1  0
  5 26  1  0
  7 27  1  0
  8 28  1  0
 11 29  1  0
 11 30  1  0
 15 31  1  0
 15 32  1  0
 17 33  1  0
 18 34  1  0
 19 35  1  0
 20 36  1  0
 21 37  1  0
 23 38  1  0
M  END
>  <Unnamed: 0>  (66) 
385

>  <ID>  (66) 
TRAIN_0385

>  <Canonical_Smiles>  (66) 
OC(=O)\C=C\c1ccc2OCC(=O)N(Cc3ccccc3)c2c1

>  <Inhibition>  (66) 
3.05

>  <TDC_conf_true_inhibitor>  (66) 
0

>  <TDC_conf_non_inhibitor>  (66) 
1

>  <split>  (66) 
1

$$$$
66
     RDKit          3D

 41 43  0  0  0  0  0  0  0  0999 V2000
   -7.0994   -1.8704   -0.6519 C   0  0  0  0  0  0  0  0  0  0  0  0
   -5.7781   -1.2834   -0.2500 C   0  0  0  0  0  0  0  0  0  0  0  0
   -5.0405   -0.5110   -1.1561 C   0  0  0  0  0  0  0  0  0  0  0  0
   -3.7971    0.0147   -0.7931 C   0  0  0  0  0  0  0  0  0  0  0  0
   -3.2710   -0.2444    0.4786 C   0  0  0  0  0  0  0  0  0  0  0  0
   -4.0070   -1.0125    1.3875 C   0  0  0  0  0  0  0  0  0  0  0  0
   -5.2484   -1.5375    1.0209 C   0  0  0  0  0  0  0  0  0  0  0  0
   -1.9463    0.2917    0.9024 C   0  0  0  0  0  0  0  0  0  0  0  0
   -1.7140    0.4563    2.0954 O   0  0  0  0  0  0  0  0  0  0  0  0
   -1.0269    0.4506   -0.1193 N   0  0  0  0  0  0  0  0  0  0  0  0
    0.2176    0.9874    0.1240 C   0  0  0  0  0  0  0  0  0  0  0  0
    1.4497    0.3528   -0.8591 S   0  0  0  0  0  0  0  0  0  0  0  0
    2.6333    1.2174    0.0580 C   0  0  0  0  0  0  0  0  0  0  0  0
    3.9656    1.1813   -0.1809 N   0  0  0  0  0  0  0  0  0  0  0  0
    4.7802    0.0969   -0.5642 C   0  0  0  0  0  0  0  0  0  0  0  0
    4.4060   -1.2468   -0.4487 C   0  0  0  0  0  0  0  0  0  0  0  0
    5.2571   -2.2713   -0.8774 C   0  0  0  0  0  0  0  0  0  0  0  0
    6.4953   -1.9662   -1.4354 C   0  0  0  0  0  0  0  0  0  0  0  0
    6.8846   -0.6368   -1.5628 C   0  0  0  0  0  0  0  0  0  0  0  0
    6.0327    0.3836   -1.1315 C   0  0  0  0  0  0  0  0  0  0  0  0
    2.1245    2.0368    0.9531 N   0  0  0  0  0  0  0  0  0  0  0  0
    0.7208    1.9503    0.9746 C   0  0  0  0  0  0  0  0  0  0  0  0
   -0.0546    2.8964    1.7778 C   0  0  0  0  0  0  0  0  0  0  0  0
   -1.2027    3.2527    1.5329 O   0  0  0  0  0  0  0  0  0  0  0  0
    0.6572    3.4560    2.8036 N   0  0  0  0  0  0  0  0  0  0  0  0
   -7.6101   -1.2250   -1.3742 H   0  0  0  0  0  0  0  0  0  0  0  0
   -7.7608   -1.9741    0.2148 H   0  0  0  0  0  0  0  0  0  0  0  0
   -6.9487   -2.8562   -1.1023 H   0  0  0  0  0  0  0  0  0  0  0  0
   -5.4378   -0.3022   -2.1474 H   0  0  0  0  0  0  0  0  0  0  0  0
   -3.2682    0.6461   -1.5020 H   0  0  0  0  0  0  0  0  0  0  0  0
   -3.6140   -1.2060    2.3839 H   0  0  0  0  0  0  0  0  0  0  0  0
   -5.8021   -2.1397    1.7383 H   0  0  0  0  0  0  0  0  0  0  0  0
   -1.1236   -0.1316   -0.9409 H   0  0  0  0  0  0  0  0  0  0  0  0
    4.4941    1.8915    0.3145 H   0  0  0  0  0  0  0  0  0  0  0  0
    3.4633   -1.5291    0.0099 H   0  0  0  0  0  0  0  0  0  0  0  0
    4.9510   -3.3087   -0.7688 H   0  0  0  0  0  0  0  0  0  0  0  0
    7.1548   -2.7630   -1.7689 H   0  0  0  0  0  0  0  0  0  0  0  0
    7.8479   -0.3908   -2.0017 H   0  0  0  0  0  0  0  0  0  0  0  0
    6.3504    1.4165   -1.2557 H   0  0  0  0  0  0  0  0  0  0  0  0
    0.2229    4.1803    3.3537 H   0  0  0  0  0  0  0  0  0  0  0  0
    1.6422    3.2475    2.8993 H   0  0  0  0  0  0  0  0  0  0  0  0
  1  2  1  0
  2  3  2  0
  3  4  1  0
  4  5  2  0
  5  6  1  0
  6  7  2  0
  5  8  1  0
  8  9  2  0
  8 10  1  0
 10 11  1  0
 11 12  1  0
 12 13  1  0
 13 14  1  0
 14 15  1  0
 15 16  2  0
 16 17  1  0
 17 18  2  0
 18 19  1  0
 19 20  2  0
 13 21  2  0
 21 22  1  0
 22 23  1  0
 23 24  2  0
 23 25  1  0
  7  2  1  0
 22 11  2  0
 20 15  1  0
  1 26  1  0
  1 27  1  0
  1 28  1  0
  3 29  1  0
  4 30  1  0
  6 31  1  0
  7 32  1  0
 10 33  1  0
 14 34  1  0
 16 35  1  0
 17 36  1  0
 18 37  1  0
 19 38  1  0
 20 39  1  0
 25 40  1  0
 25 41  1  0
M  END
>  <Unnamed: 0>  (67) 
395

>  <ID>  (67) 
TRAIN_0395

>  <Canonical_Smiles>  (67) 
Cc1ccc(cc1)C(=O)Nc2sc(Nc3ccccc3)nc2C(=O)N

>  <Inhibition>  (67) 
15.5

>  <TDC_conf_true_inhibitor>  (67) 
0

>  <TDC_conf_non_inhibitor>  (67) 
1

>  <split>  (67) 
1

$$$$
67
     RDKit          3D

 38 41  0  0  0  0  0  0  0  0999 V2000
    6.3868   -2.3137    0.1326 O   0  0  0  0  0  1  0  0  0  0  0  0
    5.9030   -1.6385   -0.7872 N   0  0  0  0  0  4  0  0  0  0  0  0
    6.4723   -1.4074   -1.8635 O   0  0  0  0  0  0  0  0  0  0  0  0
    4.5621   -1.0742   -0.5882 C   0  0  0  0  0  0  0  0  0  0  0  0
    3.8870   -1.2978    0.6189 C   0  0  0  0  0  0  0  0  0  0  0  0
    2.6108   -0.7582    0.8038 C   0  0  0  0  0  0  0  0  0  0  0  0
    2.0053    0.0009   -0.2089 C   0  0  0  0  0  0  0  0  0  0  0  0
    2.6935    0.2194   -1.4114 C   0  0  0  0  0  0  0  0  0  0  0  0
    3.9699   -0.3159   -1.6063 C   0  0  0  0  0  0  0  0  0  0  0  0
    0.6581    0.5759   -0.0154 C   0  0  0  0  0  0  0  0  0  0  0  0
   -0.3874   -0.2827    0.0404 C   0  0  0  0  0  0  0  0  0  0  0  0
   -1.7728    0.1612    0.2050 C   0  0  0  0  0  0  0  0  0  0  0  0
   -2.0026    1.4853    0.2965 C   0  0  0  0  0  0  0  0  0  0  0  0
   -0.9362    2.3768    0.2368 N   0  0  0  0  0  0  0  0  0  0  0  0
   -0.9746    3.7507    0.3137 C   0  0  0  0  0  0  0  0  0  0  0  0
    0.3123    4.2339    0.2212 C   0  0  0  0  0  0  0  0  0  0  0  0
    1.1724    3.1190    0.0811 C   0  0  0  0  0  0  0  0  0  0  0  0
    0.3873    1.9820    0.0866 C   0  0  0  0  0  0  0  0  0  0  0  0
   -2.9108   -0.7686    0.2789 C   0  0  0  0  0  0  0  0  0  0  0  0
   -3.0781   -1.5846    1.4047 C   0  0  0  0  0  0  0  0  0  0  0  0
   -4.1519   -2.4743    1.4768 C   0  0  0  0  0  0  0  0  0  0  0  0
   -5.0621   -2.5562    0.4238 C   0  0  0  0  0  0  0  0  0  0  0  0
   -4.9005   -1.7504   -0.7024 C   0  0  0  0  0  0  0  0  0  0  0  0
   -3.8278   -0.8596   -0.7762 C   0  0  0  0  0  0  0  0  0  0  0  0
    4.3363   -1.8811    1.4200 H   0  0  0  0  0  0  0  0  0  0  0  0
    2.0924   -0.9249    1.7465 H   0  0  0  0  0  0  0  0  0  0  0  0
    2.2340    0.8088   -2.2034 H   0  0  0  0  0  0  0  0  0  0  0  0
    4.4823   -0.1328   -2.5486 H   0  0  0  0  0  0  0  0  0  0  0  0
   -0.2365   -1.3560   -0.0540 H   0  0  0  0  0  0  0  0  0  0  0  0
   -2.9897    1.9132    0.4238 H   0  0  0  0  0  0  0  0  0  0  0  0
   -1.9164    4.2689    0.4315 H   0  0  0  0  0  0  0  0  0  0  0  0
    0.6000    5.2768    0.2542 H   0  0  0  0  0  0  0  0  0  0  0  0
    2.2505    3.1434   -0.0123 H   0  0  0  0  0  0  0  0  0  0  0  0
   -2.3764   -1.5278    2.2337 H   0  0  0  0  0  0  0  0  0  0  0  0
   -4.2780   -3.1029    2.3545 H   0  0  0  0  0  0  0  0  0  0  0  0
   -5.8975   -3.2497    0.4804 H   0  0  0  0  0  0  0  0  0  0  0  0
   -5.6083   -1.8170   -1.5246 H   0  0  0  0  0  0  0  0  0  0  0  0
   -3.7084   -0.2417   -1.6633 H   0  0  0  0  0  0  0  0  0  0  0  0
  1  2  1  0
  2  3  2  0
  2  4  1  0
  4  5  2  0
  5  6  1  0
  6  7  2  0
  7  8  1  0
  8  9  2  0
  7 10  1  0
 10 11  2  0
 11 12  1  0
 12 13  2  0
 13 14  1  0
 14 15  1  0
 15 16  2  0
 16 17  1  0
 17 18  2  0
 12 19  1  0
 19 20  2  0
 20 21  1  0
 21 22  2  0
 22 23  1  0
 23 24  2  0
  9  4  1  0
 18 10  1  0
 18 14  1  0
 24 19  1  0
  5 25  1  0
  6 26  1  0
  8 27  1  0
  9 28  1  0
 11 29  1  0
 13 30  1  0
 15 31  1  0
 16 32  1  0
 17 33  1  0
 20 34  1  0
 21 35  1  0
 22 36  1  0
 23 37  1  0
 24 38  1  0
M  CHG  2   1  -1   2   1
M  END
>  <Unnamed: 0>  (68) 
401

>  <ID>  (68) 
TRAIN_0401

>  <Canonical_Smiles>  (68) 
[O-][N+](=O)c1ccc(cc1)c2cc(cn3cccc23)c4ccccc4

>  <Inhibition>  (68) 
41.8

>  <TDC_conf_true_inhibitor>  (68) 
0

>  <TDC_conf_non_inhibitor>  (68) 
1

>  <split>  (68) 
1

$$$$
68
     RDKit          3D

 34 37  0  0  0  0  0  0  0  0999 V2000
    5.3392   -0.5566    0.5767 O   0  0  0  0  0  0  0  0  0  0  0  0
    4.3680    0.3200   -0.0357 S   0  0  0  0  0  6  0  0  0  0  0  0
    4.6504    1.7022   -0.3489 O   0  0  0  0  0  0  0  0  0  0  0  0
    3.8299   -0.3966   -1.3944 O   0  0  0  0  0  0  0  0  0  0  0  0
    2.4210   -0.5043   -1.4406 C   0  0  0  0  0  0  0  0  0  0  0  0
    2.0239   -0.2126   -0.0270 C   0  0  0  0  0  0  0  0  0  0  0  0
    2.9551    0.2200    0.7585 N   0  0  0  0  0  0  0  0  0  0  0  0
    0.6057   -0.3747    0.4956 C   0  0  0  0  0  0  0  0  0  0  0  0
   -0.3437   -1.3182   -0.2764 C   0  0  0  0  0  0  0  0  0  0  0  0
   -1.5789   -1.5646    0.6233 C   0  0  0  0  0  0  0  0  0  0  0  0
   -2.2965   -0.2308    0.9214 C   0  0  0  0  0  0  0  0  0  0  0  0
   -2.7579    0.4024   -0.4016 C   0  0  0  0  0  0  0  0  0  0  0  0
   -1.5442    0.6495   -1.3128 C   0  0  0  0  0  0  0  0  0  0  0  0
   -0.5559    1.5936   -0.6085 C   0  0  0  0  0  0  0  0  0  0  0  0
   -0.0900    0.9857    0.7271 C   0  0  0  0  0  0  0  0  0  0  0  0
   -1.3257    0.7408    1.6183 C   0  0  0  0  0  0  0  0  0  0  0  0
   -0.8521   -0.6922   -1.5907 C   0  0  0  0  0  0  0  0  0  0  0  0
    2.0228    0.2473   -2.1239 H   0  0  0  0  0  0  0  0  0  0  0  0
    2.1400   -1.5154   -1.7385 H   0  0  0  0  0  0  0  0  0  0  0  0
    0.7654   -0.8306    1.4863 H   0  0  0  0  0  0  0  0  0  0  0  0
    0.1516   -2.2722   -0.4887 H   0  0  0  0  0  0  0  0  0  0  0  0
   -1.2720   -2.0412    1.5624 H   0  0  0  0  0  0  0  0  0  0  0  0
   -2.2702   -2.2583    0.1288 H   0  0  0  0  0  0  0  0  0  0  0  0
   -3.1634   -0.4137    1.5661 H   0  0  0  0  0  0  0  0  0  0  0  0
   -3.4758   -0.2584   -0.9030 H   0  0  0  0  0  0  0  0  0  0  0  0
   -3.2790    1.3475   -0.2055 H   0  0  0  0  0  0  0  0  0  0  0  0
   -1.8773    1.0973   -2.2557 H   0  0  0  0  0  0  0  0  0  0  0  0
   -1.0380    2.5620   -0.4250 H   0  0  0  0  0  0  0  0  0  0  0  0
    0.3048    1.7912   -1.2576 H   0  0  0  0  0  0  0  0  0  0  0  0
    0.5868    1.6875    1.2282 H   0  0  0  0  0  0  0  0  0  0  0  0
   -1.0156    0.3285    2.5865 H   0  0  0  0  0  0  0  0  0  0  0  0
   -1.8313    1.6917    1.8269 H   0  0  0  0  0  0  0  0  0  0  0  0
   -0.0396   -0.5480   -2.3059 H   0  0  0  0  0  0  0  0  0  0  0  0
   -1.5577   -1.3787   -2.0764 H   0  0  0  0  0  0  0  0  0  0  0  0
  1  2  2  0
  2  3  2  0
  2  4  1  0
  4  5  1  0
  5  6  1  0
  6  7  2  0
  6  8  1  0
  8  9  1  0
  9 10  1  0
 10 11  1  0
 11 12  1  0
 12 13  1  0
 13 14  1  0
 14 15  1  0
 15 16  1  0
 13 17  1  0
  7  2  1  0
 15  8  1  0
 17  9  1  0
 16 11  1  0
  5 18  1  0
  5 19  1  0
  8 20  1  0
  9 21  1  0
 10 22  1  0
 10 23  1  0
 11 24  1  0
 12 25  1  0
 12 26  1  0
 13 27  1  0
 14 28  1  0
 14 29  1  0
 15 30  1  0
 16 31  1  0
 16 32  1  0
 17 33  1  0
 17 34  1  0
M  END
>  <Unnamed: 0>  (69) 
402

>  <ID>  (69) 
TRAIN_0402

>  <Canonical_Smiles>  (69) 
O=S1(=O)OCC(=N1)C2C3CC4CC(CC2C4)C3

>  <Inhibition>  (69) 
36.8

>  <TDC_conf_true_inhibitor>  (69) 
0

>  <TDC_conf_non_inhibitor>  (69) 
1

>  <split>  (69) 
1

$$$$
69
     RDKit          3D

 30 32  0  0  0  0  0  0  0  0999 V2000
    3.6862    2.1550   -0.4537 C   0  0  0  0  0  0  0  0  0  0  0  0
    3.2221    0.8098   -0.3312 O   0  0  0  0  0  0  0  0  0  0  0  0
    2.1411    0.6748    0.4790 C   0  0  0  0  0  0  0  0  0  0  0  0
    1.5613    1.5702    1.0670 O   0  0  0  0  0  0  0  0  0  0  0  0
    1.7567   -0.7532    0.5181 C   0  0  0  0  0  0  0  0  0  0  0  0
    2.7656   -1.6822    0.8393 C   0  0  0  0  0  0  0  0  0  0  0  0
    2.4676   -3.0380    0.9554 C   0  0  0  0  0  0  0  0  0  0  0  0
    1.1626   -3.4735    0.7592 C   0  0  0  0  0  0  0  0  0  0  0  0
    0.1585   -2.5542    0.4407 C   0  0  0  0  0  0  0  0  0  0  0  0
    0.4311   -1.1773    0.3093 C   0  0  0  0  0  0  0  0  0  0  0  0
   -0.6629   -0.2826   -0.0717 C   0  0  0  0  0  0  0  0  0  0  0  0
   -1.9063   -0.6608    0.3567 O   0  0  0  0  0  0  0  0  0  0  0  0
   -2.8027    0.2710   -0.0785 C   0  0  0  0  0  0  0  0  0  0  0  0
   -4.1728    0.2685    0.1463 C   0  0  0  0  0  0  0  0  0  0  0  0
   -5.1591   -1.1822    1.2127 I   0  0  0  0  0  0  0  0  0  0  0  0
   -4.8318    1.3473   -0.4236 C   0  0  0  0  0  0  0  0  0  0  0  0
   -4.2393    2.3365   -1.1422 N   0  0  0  0  0  0  0  0  0  0  0  0
   -2.8958    2.3011   -1.3348 C   0  0  0  0  0  0  0  0  0  0  0  0
   -2.1414    1.2541   -0.8033 C   0  0  0  0  0  0  0  0  0  0  0  0
   -0.7693    0.8858   -0.8016 C   0  0  0  0  0  0  0  0  0  0  0  0
    4.5557    2.1543   -1.1168 H   0  0  0  0  0  0  0  0  0  0  0  0
    2.9117    2.7880   -0.8980 H   0  0  0  0  0  0  0  0  0  0  0  0
    3.9942    2.5447    0.5216 H   0  0  0  0  0  0  0  0  0  0  0  0
    3.7862   -1.3468    1.0130 H   0  0  0  0  0  0  0  0  0  0  0  0
    3.2496   -3.7505    1.2063 H   0  0  0  0  0  0  0  0  0  0  0  0
    0.9193   -4.5295    0.8523 H   0  0  0  0  0  0  0  0  0  0  0  0
   -0.8533   -2.9279    0.2850 H   0  0  0  0  0  0  0  0  0  0  0  0
   -5.9086    1.4632   -0.3206 H   0  0  0  0  0  0  0  0  0  0  0  0
   -2.4671    3.1136   -1.9104 H   0  0  0  0  0  0  0  0  0  0  0  0
    0.0410    1.4209   -1.2758 H   0  0  0  0  0  0  0  0  0  0  0  0
  1  2  1  0
  2  3  1  0
  3  4  2  0
  3  5  1  0
  5  6  2  0
  6  7  1  0
  7  8  2  0
  8  9  1  0
  9 10  2  0
 10 11  1  0
 11 12  1  0
 12 13  1  0
 13 14  2  0
 14 15  1  0
 14 16  1  0
 16 17  2  0
 17 18  1  0
 18 19  2  0
 19 20  1  0
 10  5  1  0
 20 11  2  0
 19 13  1  0
  1 21  1  0
  1 22  1  0
  1 23  1  0
  6 24  1  0
  7 25  1  0
  8 26  1  0
  9 27  1  0
 16 28  1  0
 18 29  1  0
 20 30  1  0
M  END
>  <Unnamed: 0>  (70) 
406

>  <ID>  (70) 
TRAIN_0406

>  <Canonical_Smiles>  (70) 
COC(=O)c1ccccc1c2oc3c(I)cncc3c2

>  <Inhibition>  (70) 
88.6

>  <TDC_conf_true_inhibitor>  (70) 
1

>  <TDC_conf_non_inhibitor>  (70) 
0

>  <split>  (70) 
1

$$$$
70
     RDKit          3D

 54 57  0  0  0  0  0  0  0  0999 V2000
    7.1274    0.2020    1.1596 C   0  0  0  0  0  0  0  0  0  0  0  0
    5.3468    0.1931    1.1482 S   0  0  0  0  0  6  0  0  0  0  0  0
    4.9072   -0.8244    2.0787 O   0  0  0  0  0  0  0  0  0  0  0  0
    4.8730    1.5555    1.2618 O   0  0  0  0  0  0  0  0  0  0  0  0
    5.0201   -0.3492   -0.4217 N   0  0  0  0  0  0  0  0  0  0  0  0
    3.8247   -1.2353   -0.5900 C   0  0  0  0  0  0  0  0  0  0  0  0
    2.8635   -0.7318   -1.6848 C   0  0  0  0  0  0  0  0  0  0  0  0
    2.6067    0.7225   -1.6607 N   0  0  0  0  0  0  0  0  0  0  0  0
    1.8620    1.1585   -0.4632 C   0  0  0  0  0  0  0  0  0  0  0  0
    0.4919    0.5290   -0.3314 C   0  0  0  0  0  0  0  0  0  0  0  0
   -0.4790    0.7279   -1.3357 C   0  0  0  0  0  0  0  0  0  0  0  0
   -1.7525    0.1646   -1.2561 C   0  0  0  0  0  0  0  0  0  0  0  0
   -2.1148   -0.6152   -0.1504 C   0  0  0  0  0  0  0  0  0  0  0  0
   -3.3658   -1.1977   -0.0845 O   0  0  0  0  0  0  0  0  0  0  0  0
   -4.4453   -0.3434   -0.0446 C   0  0  0  0  0  0  0  0  0  0  0  0
   -4.4647    0.8357    0.7038 C   0  0  0  0  0  0  0  0  0  0  0  0
   -5.6102    1.6312    0.7167 C   0  0  0  0  0  0  0  0  0  0  0  0
   -6.7407    1.2414   -0.0040 C   0  0  0  0  0  0  0  0  0  0  0  0
   -6.7428    0.0431   -0.7362 C   0  0  0  0  0  0  0  0  0  0  0  0
   -5.5817   -0.7455   -0.7491 C   0  0  0  0  0  0  0  0  0  0  0  0
   -7.9595   -0.3700   -1.5257 C   0  0  0  0  0  0  0  0  0  0  0  0
   -7.9743    0.1735   -2.7741 F   0  0  0  0  0  0  0  0  0  0  0  0
   -9.1294    0.0095   -0.9391 F   0  0  0  0  0  0  0  0  0  0  0  0
   -8.0540   -1.7173   -1.7028 F   0  0  0  0  0  0  0  0  0  0  0  0
   -1.1657   -0.8573    0.8616 C   0  0  0  0  0  0  0  0  0  0  0  0
   -1.1268   -1.5848    2.0800 C   0  0  0  0  0  0  0  0  0  0  0  0
   -2.1454   -2.3050    2.5719 N   0  0  0  0  0  0  0  0  0  0  0  0
    0.0377   -1.4609    2.7064 N   0  0  0  0  0  0  0  0  0  0  0  0
    0.7599   -0.6774    1.8902 N   0  0  0  0  0  0  0  0  0  0  0  0
    0.0964   -0.2759    0.7563 C   0  0  0  0  0  0  0  0  0  0  0  0
    3.8889    1.4628   -1.7585 C   0  0  0  0  0  0  0  0  0  0  0  0
    5.1758    0.6368   -1.5274 C   0  0  0  0  0  0  0  0  0  0  0  0
    7.4872   -0.8035    0.9325 H   0  0  0  0  0  0  0  0  0  0  0  0
    7.4532    0.4930    2.1607 H   0  0  0  0  0  0  0  0  0  0  0  0
    7.4944    0.9260    0.4310 H   0  0  0  0  0  0  0  0  0  0  0  0
    4.1821   -2.2389   -0.8469 H   0  0  0  0  0  0  0  0  0  0  0  0
    3.2674   -1.3255    0.3467 H   0  0  0  0  0  0  0  0  0  0  0  0
    3.2859   -0.9803   -2.6683 H   0  0  0  0  0  0  0  0  0  0  0  0
    1.9287   -1.3024   -1.6424 H   0  0  0  0  0  0  0  0  0  0  0  0
    1.6986    2.2438   -0.5144 H   0  0  0  0  0  0  0  0  0  0  0  0
    2.4362    0.9800    0.4508 H   0  0  0  0  0  0  0  0  0  0  0  0
   -0.2228    1.3291   -2.2081 H   0  0  0  0  0  0  0  0  0  0  0  0
   -2.4633    0.3313   -2.0613 H   0  0  0  0  0  0  0  0  0  0  0  0
   -3.5983    1.1436    1.2838 H   0  0  0  0  0  0  0  0  0  0  0  0
   -5.6222    2.5541    1.2924 H   0  0  0  0  0  0  0  0  0  0  0  0
   -7.6279    1.8739    0.0141 H   0  0  0  0  0  0  0  0  0  0  0  0
   -5.5573   -1.6769   -1.3131 H   0  0  0  0  0  0  0  0  0  0  0  0
   -3.0872   -2.1349    2.2376 H   0  0  0  0  0  0  0  0  0  0  0  0
   -2.0885   -2.5572    3.5515 H   0  0  0  0  0  0  0  0  0  0  0  0
    1.7091   -0.4521    2.1692 H   0  0  0  0  0  0  0  0  0  0  0  0
    3.9451    1.8857   -2.7696 H   0  0  0  0  0  0  0  0  0  0  0  0
    3.8966    2.3325   -1.0893 H   0  0  0  0  0  0  0  0  0  0  0  0
    6.0229    1.3053   -1.3420 H   0  0  0  0  0  0  0  0  0  0  0  0
    5.4309    0.0776   -2.4370 H   0  0  0  0  0  0  0  0  0  0  0  0
  1  2  1  0
  2  3  2  0
  2  4  2  0
  2  5  1  0
  5  6  1  0
  6  7  1  0
  7  8  1  0
  8  9  1  0
  9 10  1  0
 10 11  2  0
 11 12  1  0
 12 13  2  0
 13 14  1  0
 14 15  1  0
 15 16  2  0
 16 17  1  0
 17 18  2  0
 18 19  1  0
 19 20  2  0
 19 21  1  0
 21 22  1  0
 21 23  1  0
 21 24  1  0
 13 25  1  0
 25 26  1  0
 26 27  1  0
 26 28  2  0
 28 29  1  0
 29 30  1  0
  8 31  1  0
 31 32  1  0
 32  5  1  0
 30 10  1  0
 20 15  1  0
 30 25  2  0
  1 33  1  0
  1 34  1  0
  1 35  1  0
  6 36  1  0
  6 37  1  0
  7 38  1  0
  7 39  1  0
  9 40  1  0
  9 41  1  0
 11 42  1  0
 12 43  1  0
 16 44  1  0
 17 45  1  0
 18 46  1  0
 20 47  1  0
 27 48  1  0
 27 49  1  0
 29 50  1  0
 31 51  1  0
 31 52  1  0
 32 53  1  0
 32 54  1  0
M  END
>  <Unnamed: 0>  (71) 
409

>  <ID>  (71) 
TRAIN_0409

>  <Canonical_Smiles>  (71) 
CS(=O)(=O)N1CCN(Cc2ccc(Oc3cccc(c3)C(F)(F)F)c4c(N)n[nH]c24)CC1

>  <Inhibition>  (71) 
17.5

>  <TDC_conf_true_inhibitor>  (71) 
0

>  <TDC_conf_non_inhibitor>  (71) 
1

>  <split>  (71) 
1

$$$$
71
     RDKit          3D

 43 44  0  0  0  0  0  0  0  0999 V2000
   -1.9525   -3.6998    1.4416 C   0  0  0  0  0  0  0  0  0  0  0  0
   -1.6327   -2.5302    0.5279 C   0  0  0  0  0  0  0  0  0  0  0  0
   -1.9547   -1.1927    1.1891 C   0  0  0  0  0  0  0  0  0  0  0  0
   -1.6807   -0.1161    0.2896 O   0  0  0  0  0  0  0  0  0  0  0  0
   -0.4390    0.4943    0.4258 C   0  0  0  0  0  0  0  0  0  0  0  0
   -0.3030    1.7705   -0.0013 C   0  0  0  0  0  0  0  0  0  0  0  0
    1.0376    2.4020    0.1713 C   0  0  0  0  0  0  0  0  0  0  0  0
    1.2953    3.5461   -0.1863 O   0  0  0  0  0  0  0  0  0  0  0  0
    1.9873    1.6236    0.7496 N   0  0  0  0  0  0  0  0  0  0  0  0
    1.7239    0.3368    1.1097 C   0  0  0  0  0  0  0  0  0  0  0  0
    0.5823   -0.2499    0.9731 N   0  0  0  0  0  0  0  0  0  0  0  0
    3.1368   -0.4811    1.7966 S   0  0  0  0  0  6  0  0  0  0  0  0
    4.2915    0.1982    1.2331 O   0  0  0  0  0  0  0  0  0  0  0  0
    2.9169   -0.4957    3.2309 O   0  0  0  0  0  0  0  0  0  0  0  0
    3.0594   -2.1517    1.1882 C   0  0  0  0  0  0  0  0  0  0  0  0
    3.5564   -2.3446   -0.2391 C   0  0  0  0  0  0  0  0  0  0  0  0
    2.6445   -1.7592   -1.3044 C   0  0  0  0  0  0  0  0  0  0  0  0
   -1.4155    2.5406   -0.5975 C   0  0  0  0  0  0  0  0  0  0  0  0
   -1.8285    3.7495   -0.0193 C   0  0  0  0  0  0  0  0  0  0  0  0
   -2.8742    4.4863   -0.5809 C   0  0  0  0  0  0  0  0  0  0  0  0
   -3.5172    4.0242   -1.7273 C   0  0  0  0  0  0  0  0  0  0  0  0
   -3.1140    2.8274   -2.3155 C   0  0  0  0  0  0  0  0  0  0  0  0
   -2.0675    2.0907   -1.7558 C   0  0  0  0  0  0  0  0  0  0  0  0
   -1.7194   -4.6457    0.9427 H   0  0  0  0  0  0  0  0  0  0  0  0
   -3.0137   -3.7099    1.7099 H   0  0  0  0  0  0  0  0  0  0  0  0
   -1.3647   -3.6483    2.3636 H   0  0  0  0  0  0  0  0  0  0  0  0
   -0.5767   -2.5700    0.2399 H   0  0  0  0  0  0  0  0  0  0  0  0
   -2.2005   -2.6211   -0.4058 H   0  0  0  0  0  0  0  0  0  0  0  0
   -3.0292   -1.1508    1.4027 H   0  0  0  0  0  0  0  0  0  0  0  0
   -1.4458   -1.0686    2.1533 H   0  0  0  0  0  0  0  0  0  0  0  0
    2.9209    2.0077    0.8564 H   0  0  0  0  0  0  0  0  0  0  0  0
    2.0395   -2.5235    1.3239 H   0  0  0  0  0  0  0  0  0  0  0  0
    3.7039   -2.7302    1.8608 H   0  0  0  0  0  0  0  0  0  0  0  0
    4.5629   -1.9272   -0.3551 H   0  0  0  0  0  0  0  0  0  0  0  0
    3.6426   -3.4223   -0.4243 H   0  0  0  0  0  0  0  0  0  0  0  0
    2.6466   -0.6666   -1.2788 H   0  0  0  0  0  0  0  0  0  0  0  0
    2.9901   -2.0613   -2.2986 H   0  0  0  0  0  0  0  0  0  0  0  0
    1.6163   -2.1136   -1.1846 H   0  0  0  0  0  0  0  0  0  0  0  0
   -1.3342    4.1338    0.8705 H   0  0  0  0  0  0  0  0  0  0  0  0
   -3.1820    5.4236   -0.1248 H   0  0  0  0  0  0  0  0  0  0  0  0
   -4.3294    4.5991   -2.1643 H   0  0  0  0  0  0  0  0  0  0  0  0
   -3.6127    2.4667   -3.2113 H   0  0  0  0  0  0  0  0  0  0  0  0
   -1.7670    1.1593   -2.2308 H   0  0  0  0  0  0  0  0  0  0  0  0
  1  2  1  0
  2  3  1  0
  3  4  1  0
  4  5  1  0
  5  6  2  0
  6  7  1  0
  7  8  2  0
  7  9  1  0
  9 10  1  0
 10 11  2  0
 10 12  1  0
 12 13  2  0
 12 14  2  0
 12 15  1  0
 15 16  1  0
 16 17  1  0
  6 18  1  0
 18 19  2  0
 19 20  1  0
 20 21  2  0
 21 22  1  0
 22 23  2  0
 11  5  1  0
 23 18  1  0
  1 24  1  0
  1 25  1  0
  1 26  1  0
  2 27  1  0
  2 28  1  0
  3 29  1  0
  3 30  1  0
  9 31  1  0
 15 32  1  0
 15 33  1  0
 16 34  1  0
 16 35  1  0
 17 36  1  0
 17 37  1  0
 17 38  1  0
 19 39  1  0
 20 40  1  0
 21 41  1  0
 22 42  1  0
 23 43  1  0
M  END
>  <Unnamed: 0>  (72) 
426

>  <ID>  (72) 
TRAIN_0426

>  <Canonical_Smiles>  (72) 
CCCOC1=C(C(=O)NC(=N1)S(=O)(=O)CCC)c2ccccc2

>  <Inhibition>  (72) 
47.9

>  <TDC_conf_true_inhibitor>  (72) 
0

>  <TDC_conf_non_inhibitor>  (72) 
1

>  <split>  (72) 
1

$$$$
72
     RDKit          3D

 46 47  0  0  0  0  0  0  0  0999 V2000
   -2.0976    4.6336   -0.9888 C   0  0  0  0  0  0  0  0  0  0  0  0
   -1.2972    3.3421   -1.0323 C   0  0  0  0  0  0  0  0  0  0  0  0
   -1.2022    2.6954    0.3541 C   0  0  0  0  0  0  0  0  0  0  0  0
   -0.4931    1.4069    0.3065 N   0  0  0  0  0  0  0  0  0  0  0  0
    0.8889    1.4744    0.2662 C   0  0  0  0  0  0  0  0  0  0  0  0
    1.5049    2.5390    0.3159 O   0  0  0  0  0  0  0  0  0  0  0  0
    1.6269    0.1845    0.1512 C   0  0  0  0  0  0  0  0  0  0  0  0
    0.8930   -0.9417    0.0775 C   0  0  0  0  0  0  0  0  0  0  0  0
    1.5604   -2.1535   -0.0707 O   0  0  0  0  0  0  0  0  0  0  0  0
    0.7336   -3.3112   -0.0814 C   0  0  0  0  0  0  0  0  0  0  0  0
   -0.4739   -0.9604    0.1335 N   0  0  0  0  0  0  0  0  0  0  0  0
   -1.1030    0.1658    0.2462 C   0  0  0  0  0  0  0  0  0  0  0  0
   -2.8882    0.1138    0.3380 S   0  0  0  0  0  6  0  0  0  0  0  0
   -3.3694    0.7944   -0.8512 O   0  0  0  0  0  0  0  0  0  0  0  0
   -3.2477    0.5799    1.6655 O   0  0  0  0  0  0  0  0  0  0  0  0
   -3.3312   -1.6057    0.1947 C   0  0  0  0  0  0  0  0  0  0  0  0
   -3.0694   -2.4055    1.4644 C   0  0  0  0  0  0  0  0  0  0  0  0
   -3.3664   -3.8815    1.2569 C   0  0  0  0  0  0  0  0  0  0  0  0
    3.1053    0.1729    0.0904 C   0  0  0  0  0  0  0  0  0  0  0  0
    3.8616   -0.5008    1.0617 C   0  0  0  0  0  0  0  0  0  0  0  0
    5.2571   -0.5055    0.9995 C   0  0  0  0  0  0  0  0  0  0  0  0
    5.9118    0.1673   -0.0298 C   0  0  0  0  0  0  0  0  0  0  0  0
    5.1733    0.8454   -0.9972 C   0  0  0  0  0  0  0  0  0  0  0  0
    3.7776    0.8486   -0.9379 C   0  0  0  0  0  0  0  0  0  0  0  0
   -1.6347    5.3594   -0.3126 H   0  0  0  0  0  0  0  0  0  0  0  0
   -3.1213    4.4489   -0.6478 H   0  0  0  0  0  0  0  0  0  0  0  0
   -2.1479    5.0821   -1.9860 H   0  0  0  0  0  0  0  0  0  0  0  0
   -1.7615    2.6528   -1.7453 H   0  0  0  0  0  0  0  0  0  0  0  0
   -0.2944    3.5560   -1.4195 H   0  0  0  0  0  0  0  0  0  0  0  0
   -2.1974    2.5893    0.7849 H   0  0  0  0  0  0  0  0  0  0  0  0
   -0.6574    3.3679    1.0289 H   0  0  0  0  0  0  0  0  0  0  0  0
    1.3812   -4.1853   -0.1970 H   0  0  0  0  0  0  0  0  0  0  0  0
    0.0395   -3.2924   -0.9284 H   0  0  0  0  0  0  0  0  0  0  0  0
    0.1927   -3.4160    0.8651 H   0  0  0  0  0  0  0  0  0  0  0  0
   -2.8020   -2.0162   -0.6710 H   0  0  0  0  0  0  0  0  0  0  0  0
   -4.4021   -1.6239   -0.0378 H   0  0  0  0  0  0  0  0  0  0  0  0
   -3.6966   -2.0252    2.2790 H   0  0  0  0  0  0  0  0  0  0  0  0
   -2.0317   -2.2922    1.7931 H   0  0  0  0  0  0  0  0  0  0  0  0
   -2.7262   -4.3038    0.4757 H   0  0  0  0  0  0  0  0  0  0  0  0
   -4.4107   -4.0350    0.9669 H   0  0  0  0  0  0  0  0  0  0  0  0
   -3.1852   -4.4384    2.1815 H   0  0  0  0  0  0  0  0  0  0  0  0
    3.3687   -1.0304    1.8736 H   0  0  0  0  0  0  0  0  0  0  0  0
    5.8317   -1.0331    1.7561 H   0  0  0  0  0  0  0  0  0  0  0  0
    6.9977    0.1669   -0.0760 H   0  0  0  0  0  0  0  0  0  0  0  0
    5.6824    1.3778   -1.7963 H   0  0  0  0  0  0  0  0  0  0  0  0
    3.2202    1.3926   -1.6974 H   0  0  0  0  0  0  0  0  0  0  0  0
  1  2  1  0
  2  3  1  0
  3  4  1  0
  4  5  1  0
  5  6  2  0
  5  7  1  0
  7  8  2  0
  8  9  1  0
  9 10  1  0
  8 11  1  0
 11 12  2  0
 12 13  1  0
 13 14  2  0
 13 15  2  0
 13 16  1  0
 16 17  1  0
 17 18  1  0
  7 19  1  0
 19 20  2  0
 20 21  1  0
 21 22  2  0
 22 23  1  0
 23 24  2  0
 12  4  1  0
 24 19  1  0
  1 25  1  0
  1 26  1  0
  1 27  1  0
  2 28  1  0
  2 29  1  0
  3 30  1  0
  3 31  1  0
 10 32  1  0
 10 33  1  0
 10 34  1  0
 16 35  1  0
 16 36  1  0
 17 37  1  0
 17 38  1  0
 18 39  1  0
 18 40  1  0
 18 41  1  0
 20 42  1  0
 21 43  1  0
 22 44  1  0
 23 45  1  0
 24 46  1  0
M  END
>  <Unnamed: 0>  (73) 
434

>  <ID>  (73) 
TRAIN_0434

>  <Canonical_Smiles>  (73) 
CCCN1C(=O)C(=C(OC)N=C1S(=O)(=O)CCC)c2ccccc2

>  <Inhibition>  (73) 
26.6

>  <TDC_conf_true_inhibitor>  (73) 
0

>  <TDC_conf_non_inhibitor>  (73) 
1

>  <split>  (73) 
1

$$$$
73
     RDKit          3D

 41 42  0  0  0  0  0  0  0  0999 V2000
    4.4919    2.6598    0.8899 C   0  0  0  0  0  0  0  0  0  0  0  0
    3.8788    1.9334   -0.2985 C   0  0  0  0  0  0  0  0  0  0  0  0
    3.9784    0.4183   -0.1339 C   0  0  0  0  0  0  0  0  0  0  0  0
    3.2113   -0.4577   -1.5301 S   0  0  0  0  0  0  0  0  0  0  0  0
    1.5037   -0.4279   -1.1036 C   0  0  0  0  0  0  0  0  0  0  0  0
    1.1542    0.1534   -0.0070 N   0  0  0  0  0  0  0  0  0  0  0  0
   -0.1706    0.1743    0.3358 C   0  0  0  0  0  0  0  0  0  0  0  0
   -1.1366   -0.3857   -0.4118 C   0  0  0  0  0  0  0  0  0  0  0  0
   -0.7291   -1.0470   -1.6790 C   0  0  0  0  0  0  0  0  0  0  0  0
   -1.5761   -1.5635   -2.4072 O   0  0  0  0  0  0  0  0  0  0  0  0
    0.6222   -1.0398   -1.9722 N   0  0  0  0  0  0  0  0  0  0  0  0
    1.0447   -1.6770   -3.2138 C   0  0  0  0  0  0  0  0  0  0  0  0
   -2.5583   -0.3474   -0.0149 C   0  0  0  0  0  0  0  0  0  0  0  0
   -3.3294    0.7618   -0.4015 C   0  0  0  0  0  0  0  0  0  0  0  0
   -4.6739    0.8534   -0.0423 C   0  0  0  0  0  0  0  0  0  0  0  0
   -5.2612   -0.1591    0.7100 C   0  0  0  0  0  0  0  0  0  0  0  0
   -4.5061   -1.2655    1.1029 C   0  0  0  0  0  0  0  0  0  0  0  0
   -3.1533   -1.3783    0.7424 C   0  0  0  0  0  0  0  0  0  0  0  0
   -2.3713   -2.5791    1.1979 C   0  0  0  0  0  0  0  0  0  0  0  0
   -0.5401    0.7983    1.5238 O   0  0  0  0  0  0  0  0  0  0  0  0
    0.5112    1.4838    2.1936 C   0  0  0  0  0  0  0  0  0  0  0  0
    5.5486    2.4005    1.0079 H   0  0  0  0  0  0  0  0  0  0  0  0
    4.4221    3.7431    0.7476 H   0  0  0  0  0  0  0  0  0  0  0  0
    3.9684    2.4052    1.8176 H   0  0  0  0  0  0  0  0  0  0  0  0
    4.4017    2.2441   -1.2101 H   0  0  0  0  0  0  0  0  0  0  0  0
    2.8342    2.2511   -0.3994 H   0  0  0  0  0  0  0  0  0  0  0  0
    3.5494    0.0832    0.8166 H   0  0  0  0  0  0  0  0  0  0  0  0
    5.0354    0.1286   -0.1170 H   0  0  0  0  0  0  0  0  0  0  0  0
    1.5401   -0.9347   -3.8483 H   0  0  0  0  0  0  0  0  0  0  0  0
    1.7483   -2.4830   -2.9841 H   0  0  0  0  0  0  0  0  0  0  0  0
    0.2082   -2.1032   -3.7743 H   0  0  0  0  0  0  0  0  0  0  0  0
   -2.8838    1.5635   -0.9873 H   0  0  0  0  0  0  0  0  0  0  0  0
   -5.2602    1.7154   -0.3486 H   0  0  0  0  0  0  0  0  0  0  0  0
   -6.3083   -0.0896    0.9922 H   0  0  0  0  0  0  0  0  0  0  0  0
   -4.9843   -2.0466    1.6907 H   0  0  0  0  0  0  0  0  0  0  0  0
   -1.8286   -3.0321    0.3618 H   0  0  0  0  0  0  0  0  0  0  0  0
   -3.0303   -3.3515    1.6068 H   0  0  0  0  0  0  0  0  0  0  0  0
   -1.6630   -2.2901    1.9808 H   0  0  0  0  0  0  0  0  0  0  0  0
    0.0891    1.9562    3.0854 H   0  0  0  0  0  0  0  0  0  0  0  0
    1.2923    0.7876    2.5190 H   0  0  0  0  0  0  0  0  0  0  0  0
    0.9302    2.2742    1.5622 H   0  0  0  0  0  0  0  0  0  0  0  0
  1  2  1  0
  2  3  1  0
  3  4  1  0
  4  5  1  0
  5  6  2  0
  6  7  1  0
  7  8  2  0
  8  9  1  0
  9 10  2  0
  9 11  1  0
 11 12  1  0
  8 13  1  0
 13 14  2  0
 14 15  1  0
 15 16  2  0
 16 17  1  0
 17 18  2  0
 18 19  1  0
  7 20  1  0
 20 21  1  0
 11  5  1  0
 18 13  1  0
  1 22  1  0
  1 23  1  0
  1 24  1  0
  2 25  1  0
  2 26  1  0
  3 27  1  0
  3 28  1  0
 12 29  1  0
 12 30  1  0
 12 31  1  0
 14 32  1  0
 15 33  1  0
 16 34  1  0
 17 35  1  0
 19 36  1  0
 19 37  1  0
 19 38  1  0
 21 39  1  0
 21 40  1  0
 21 41  1  0
M  END
>  <Unnamed: 0>  (74) 
469

>  <ID>  (74) 
TRAIN_0469

>  <Canonical_Smiles>  (74) 
CCCSC1=NC(=C(C(=O)N1C)c2ccccc2C)OC

>  <Inhibition>  (74) 
36.4

>  <TDC_conf_true_inhibitor>  (74) 
0

>  <TDC_conf_non_inhibitor>  (74) 
1

>  <split>  (74) 
1

$$$$
74
     RDKit          3D

 48 49  0  0  0  0  0  0  0  0999 V2000
    5.8778   -1.2373    0.5532 C   0  0  0  0  0  0  0  0  0  0  0  0
    4.7206   -1.5405   -0.2145 O   0  0  0  0  0  0  0  0  0  0  0  0
    3.5457   -0.9654    0.1825 C   0  0  0  0  0  0  0  0  0  0  0  0
    2.4414   -1.2824   -0.6085 C   0  0  0  0  0  0  0  0  0  0  0  0
    1.1764   -0.7643   -0.3152 C   0  0  0  0  0  0  0  0  0  0  0  0
    0.9939    0.1041    0.7665 C   0  0  0  0  0  0  0  0  0  0  0  0
   -0.3622    0.6579    1.1432 C   0  0  0  0  0  0  0  0  0  0  0  0
   -1.2360    1.0366    0.0280 N   0  0  0  0  0  0  0  0  0  0  0  0
   -0.9932    2.2564   -0.7512 C   0  0  0  0  0  0  0  0  0  0  0  0
   -0.6061    3.5213    0.0250 C   0  0  0  0  0  0  0  0  0  0  0  0
    0.9034    3.6633   -0.1229 C   0  0  0  0  0  0  0  0  0  0  0  0
    1.2193    3.1618   -1.5247 C   0  0  0  0  0  0  0  0  0  0  0  0
    0.1588    2.1146   -1.7436 C   0  0  0  0  0  0  0  0  0  0  0  0
    0.2235    1.2706   -2.6302 O   0  0  0  0  0  0  0  0  0  0  0  0
   -2.1996    0.1605   -0.4641 C   0  0  0  0  0  0  0  0  0  0  0  0
   -2.9370    0.4232   -1.4052 O   0  0  0  0  0  0  0  0  0  0  0  0
   -2.2362   -1.0094    0.2241 O   0  0  0  0  0  0  0  0  0  0  0  0
   -3.1353   -2.0811   -0.1589 C   0  0  0  0  0  0  0  0  0  0  0  0
   -2.8258   -2.5909   -1.5707 C   0  0  0  0  0  0  0  0  0  0  0  0
   -4.6011   -1.6620   -0.0059 C   0  0  0  0  0  0  0  0  0  0  0  0
   -2.8402   -3.2079    0.8432 C   0  0  0  0  0  0  0  0  0  0  0  0
    2.1061    0.3984    1.5716 C   0  0  0  0  0  0  0  0  0  0  0  0
    3.3720   -0.1245    1.2793 C   0  0  0  0  0  0  0  0  0  0  0  0
    5.7735   -1.5960    1.5825 H   0  0  0  0  0  0  0  0  0  0  0  0
    6.0991   -0.1652    0.5281 H   0  0  0  0  0  0  0  0  0  0  0  0
    6.7254   -1.7625    0.1023 H   0  0  0  0  0  0  0  0  0  0  0  0
    2.5626   -1.9393   -1.4668 H   0  0  0  0  0  0  0  0  0  0  0  0
    0.3440   -1.0397   -0.9593 H   0  0  0  0  0  0  0  0  0  0  0  0
   -0.2422    1.5400    1.7803 H   0  0  0  0  0  0  0  0  0  0  0  0
   -0.8573   -0.0871    1.7766 H   0  0  0  0  0  0  0  0  0  0  0  0
   -1.8885    2.4961   -1.3371 H   0  0  0  0  0  0  0  0  0  0  0  0
   -1.0821    4.3894   -0.4504 H   0  0  0  0  0  0  0  0  0  0  0  0
   -0.9299    3.5178    1.0696 H   0  0  0  0  0  0  0  0  0  0  0  0
    1.2326    4.6972    0.0207 H   0  0  0  0  0  0  0  0  0  0  0  0
    1.4187    3.0534    0.6245 H   0  0  0  0  0  0  0  0  0  0  0  0
    2.2208    2.7302   -1.5846 H   0  0  0  0  0  0  0  0  0  0  0  0
    1.0933    3.9530   -2.2693 H   0  0  0  0  0  0  0  0  0  0  0  0
   -3.3868   -3.5042   -1.7962 H   0  0  0  0  0  0  0  0  0  0  0  0
   -3.0807   -1.8534   -2.3377 H   0  0  0  0  0  0  0  0  0  0  0  0
   -1.7563   -2.8023   -1.6819 H   0  0  0  0  0  0  0  0  0  0  0  0
   -4.7774   -1.2177    0.9801 H   0  0  0  0  0  0  0  0  0  0  0  0
   -4.8917   -0.9097   -0.7453 H   0  0  0  0  0  0  0  0  0  0  0  0
   -5.2746   -2.5171   -0.1283 H   0  0  0  0  0  0  0  0  0  0  0  0
   -3.0138   -2.8700    1.8716 H   0  0  0  0  0  0  0  0  0  0  0  0
   -3.4624   -4.0900    0.6592 H   0  0  0  0  0  0  0  0  0  0  0  0
   -1.7874   -3.5095    0.7912 H   0  0  0  0  0  0  0  0  0  0  0  0
    1.9979    1.0426    2.4422 H   0  0  0  0  0  0  0  0  0  0  0  0
    4.1970    0.1410    1.9314 H   0  0  0  0  0  0  0  0  0  0  0  0
  1  2  1  0
  2  3  1  0
  3  4  2  0
  4  5  1  0
  5  6  2  0
  6  7  1  0
  7  8  1  0
  8  9  1  0
  9 10  1  0
 10 11  1  0
 11 12  1  0
 12 13  1  0
 13 14  2  0
  8 15  1  0
 15 16  2  0
 15 17  1  0
 17 18  1  0
 18 19  1  0
 18 20  1  0
 18 21  1  0
  6 22  1  0
 22 23  2  0
 23  3  1  0
 13  9  1  0
  1 24  1  0
  1 25  1  0
  1 26  1  0
  4 27  1  0
  5 28  1  0
  7 29  1  0
  7 30  1  0
  9 31  1  0
 10 32  1  0
 10 33  1  0
 11 34  1  0
 11 35  1  0
 12 36  1  0
 12 37  1  0
 19 38  1  0
 19 39  1  0
 19 40  1  0
 20 41  1  0
 20 42  1  0
 20 43  1  0
 21 44  1  0
 21 45  1  0
 21 46  1  0
 22 47  1  0
 23 48  1  0
M  END
>  <Unnamed: 0>  (75) 
442

>  <ID>  (75) 
TRAIN_0442

>  <Canonical_Smiles>  (75) 
COc1ccc(CN(C2CCCC2=O)C(=O)OC(C)(C)C)cc1

>  <Inhibition>  (75) 
81.0

>  <TDC_conf_true_inhibitor>  (75) 
1

>  <TDC_conf_non_inhibitor>  (75) 
0

>  <split>  (75) 
1

$$$$
75
     RDKit          3D

 51 54  0  0  0  0  0  0  0  0999 V2000
    6.5067   -0.5252   -1.9599 C   0  0  0  0  0  0  0  0  0  0  0  0
    7.1914    0.8281   -1.9143 C   0  0  0  0  0  0  0  0  0  0  0  0
    6.2726    1.8277   -1.4528 O   0  0  0  0  0  0  0  0  0  0  0  0
    6.1697    1.9647   -0.1016 C   0  0  0  0  0  0  0  0  0  0  0  0
    6.8356    1.3532    0.7258 O   0  0  0  0  0  0  0  0  0  0  0  0
    5.1229    3.0104    0.2620 C   0  0  0  0  0  0  0  0  0  0  0  0
    3.9133    2.9629   -0.4794 O   0  0  0  0  0  0  0  0  0  0  0  0
    3.0834    1.8944   -0.2845 C   0  0  0  0  0  0  0  0  0  0  0  0
    3.2131    0.9138    0.6965 C   0  0  0  0  0  0  0  0  0  0  0  0
    2.2840   -0.1329    0.7729 C   0  0  0  0  0  0  0  0  0  0  0  0
    1.2056   -0.2196   -0.1215 C   0  0  0  0  0  0  0  0  0  0  0  0
    1.0841    0.7799   -1.0973 C   0  0  0  0  0  0  0  0  0  0  0  0
    2.0117    1.8236   -1.1752 C   0  0  0  0  0  0  0  0  0  0  0  0
    0.2320   -1.3213   -0.0349 C   0  0  0  0  0  0  0  0  0  0  0  0
    0.6614   -2.6621   -0.0565 C   0  0  0  0  0  0  0  0  0  0  0  0
   -0.2368   -3.7351    0.0165 C   0  0  0  0  0  0  0  0  0  0  0  0
   -1.5832   -3.4037    0.1181 C   0  0  0  0  0  0  0  0  0  0  0  0
   -2.6178   -4.2781    0.1891 O   0  0  0  0  0  0  0  0  0  0  0  0
   -3.8085   -3.5824    0.2735 N   0  0  0  0  0  0  0  0  0  0  0  0
   -3.4849   -2.2768    0.2718 C   0  0  0  0  0  0  0  0  0  0  0  0
   -4.5190   -1.2487    0.3681 C   0  0  0  0  0  0  0  0  0  0  0  0
   -5.7313   -1.4019   -0.3189 C   0  0  0  0  0  0  0  0  0  0  0  0
   -6.7266   -0.4233   -0.2370 C   0  0  0  0  0  0  0  0  0  0  0  0
   -6.5262    0.7277    0.5333 C   0  0  0  0  0  0  0  0  0  0  0  0
   -7.6032    1.7723    0.6533 C   0  0  0  0  0  0  0  0  0  0  0  0
   -8.2944    1.6349    1.8864 O   0  0  0  0  0  0  0  0  0  0  0  0
   -5.3237    0.8728    1.2372 C   0  0  0  0  0  0  0  0  0  0  0  0
   -4.3287   -0.1061    1.1550 C   0  0  0  0  0  0  0  0  0  0  0  0
   -2.0708   -2.1112    0.1568 C   0  0  0  0  0  0  0  0  0  0  0  0
   -1.1497   -1.0475    0.0693 C   0  0  0  0  0  0  0  0  0  0  0  0
    5.6086   -0.4792   -2.5844 H   0  0  0  0  0  0  0  0  0  0  0  0
    6.1837   -0.8375   -0.9618 H   0  0  0  0  0  0  0  0  0  0  0  0
    7.1794   -1.2868   -2.3645 H   0  0  0  0  0  0  0  0  0  0  0  0
    8.0970    0.8025   -1.2972 H   0  0  0  0  0  0  0  0  0  0  0  0
    7.4993    1.1184   -2.9243 H   0  0  0  0  0  0  0  0  0  0  0  0
    4.9187    2.9758    1.3388 H   0  0  0  0  0  0  0  0  0  0  0  0
    5.5811    3.9879    0.0721 H   0  0  0  0  0  0  0  0  0  0  0  0
    4.0160    0.9243    1.4267 H   0  0  0  0  0  0  0  0  0  0  0  0
    2.4053   -0.8808    1.5548 H   0  0  0  0  0  0  0  0  0  0  0  0
    0.2695    0.7494   -1.8183 H   0  0  0  0  0  0  0  0  0  0  0  0
    1.8994    2.5835   -1.9449 H   0  0  0  0  0  0  0  0  0  0  0  0
    1.7240   -2.8863   -0.1494 H   0  0  0  0  0  0  0  0  0  0  0  0
    0.0940   -4.7662   -0.0104 H   0  0  0  0  0  0  0  0  0  0  0  0
   -5.9093   -2.2888   -0.9247 H   0  0  0  0  0  0  0  0  0  0  0  0
   -7.6595   -0.5709   -0.7776 H   0  0  0  0  0  0  0  0  0  0  0  0
   -7.1727    2.7779    0.6013 H   0  0  0  0  0  0  0  0  0  0  0  0
   -8.3292    1.6846   -0.1619 H   0  0  0  0  0  0  0  0  0  0  0  0
   -8.1072    0.7455    2.2336 H   0  0  0  0  0  0  0  0  0  0  0  0
   -5.1612    1.7482    1.8638 H   0  0  0  0  0  0  0  0  0  0  0  0
   -3.4170    0.0276    1.7325 H   0  0  0  0  0  0  0  0  0  0  0  0
   -1.5028   -0.0197    0.0857 H   0  0  0  0  0  0  0  0  0  0  0  0
  1  2  1  0
  2  3  1  0
  3  4  1  0
  4  5  2  0
  4  6  1  0
  6  7  1  0
  7  8  1  0
  8  9  2  0
  9 10  1  0
 10 11  2  0
 11 12  1  0
 12 13  2  0
 11 14  1  0
 14 15  2  0
 15 16  1  0
 16 17  2  0
 17 18  1  0
 18 19  1  0
 19 20  2  0
 20 21  1  0
 21 22  2  0
 22 23  1  0
 23 24  2  0
 24 25  1  0
 25 26  1  0
 24 27  1  0
 27 28  2  0
 20 29  1  0
 29 30  2  0
 13  8  1  0
 30 14  1  0
 29 17  1  0
 28 21  1  0
  1 31  1  0
  1 32  1  0
  1 33  1  0
  2 34  1  0
  2 35  1  0
  6 36  1  0
  6 37  1  0
  9 38  1  0
 10 39  1  0
 12 40  1  0
 13 41  1  0
 15 42  1  0
 16 43  1  0
 22 44  1  0
 23 45  1  0
 25 46  1  0
 25 47  1  0
 26 48  1  0
 27 49  1  0
 28 50  1  0
 30 51  1  0
M  END
>  <Unnamed: 0>  (76) 
444

>  <ID>  (76) 
TRAIN_0444

>  <Canonical_Smiles>  (76) 
CCOC(=O)COc1ccc(cc1)c2ccc3onc(c4ccc(CO)cc4)c3c2

>  <Inhibition>  (76) 
79.9

>  <TDC_conf_true_inhibitor>  (76) 
1

>  <TDC_conf_non_inhibitor>  (76) 
0

>  <split>  (76) 
1

$$$$
76
     RDKit          3D

 50 52  0  0  0  0  0  0  0  0999 V2000
    2.3024   -1.3398    3.8894 C   0  0  0  0  0  0  0  0  0  0  0  0
    1.7370   -1.7772    2.6573 O   0  0  0  0  0  0  0  0  0  0  0  0
    2.0397   -0.9546    1.5849 C   0  0  0  0  0  0  0  0  0  0  0  0
    2.8528    0.0961    1.7962 N   0  0  0  0  0  0  0  0  0  0  0  0
    3.0929    0.8471    0.7207 C   0  0  0  0  0  0  0  0  0  0  0  0
    2.6436    0.6599   -0.5244 N   0  0  0  0  0  0  0  0  0  0  0  0
    1.8380   -0.4105   -0.6736 C   0  0  0  0  0  0  0  0  0  0  0  0
    1.3436   -0.6884   -1.9378 O   0  0  0  0  0  0  0  0  0  0  0  0
    1.6889    0.2827   -2.9183 C   0  0  0  0  0  0  0  0  0  0  0  0
    1.4822   -1.2783    0.3538 C   0  0  0  0  0  0  0  0  0  0  0  0
    0.5620   -2.4091    0.1649 C   0  0  0  0  0  0  0  0  0  0  0  0
    1.0687   -3.7147    0.0413 C   0  0  0  0  0  0  0  0  0  0  0  0
    0.2100   -4.7991   -0.1339 C   0  0  0  0  0  0  0  0  0  0  0  0
   -1.1654   -4.5930   -0.1844 C   0  0  0  0  0  0  0  0  0  0  0  0
   -1.6888   -3.3036   -0.0613 C   0  0  0  0  0  0  0  0  0  0  0  0
   -0.8352   -2.2088    0.1097 C   0  0  0  0  0  0  0  0  0  0  0  0
   -1.2500   -0.9087    0.2468 O   0  0  0  0  0  0  0  0  0  0  0  0
   -2.6362   -0.6266    0.0932 C   0  0  0  0  0  0  0  0  0  0  0  0
   -2.8041    0.8765    0.1442 C   0  0  0  0  0  0  0  0  0  0  0  0
   -3.1285    1.4803    1.3720 C   0  0  0  0  0  0  0  0  0  0  0  0
   -3.2822    2.8626    1.4719 C   0  0  0  0  0  0  0  0  0  0  0  0
   -3.1081    3.6624    0.3477 C   0  0  0  0  0  0  0  0  0  0  0  0
   -2.7699    3.0819   -0.8745 C   0  0  0  0  0  0  0  0  0  0  0  0
   -2.6009    1.6926   -0.9897 C   0  0  0  0  0  0  0  0  0  0  0  0
   -2.2335    1.1104   -2.3272 C   0  0  0  0  0  0  0  0  0  0  0  0
    4.1253    2.2805    0.9391 S   0  0  0  0  0  4  0  0  0  0  0  0
    4.5506    2.3401    2.3797 O   0  0  0  0  0  0  0  0  0  0  0  0
    2.8171    3.5065    0.7090 C   0  0  0  0  0  0  0  0  0  0  0  0
    3.3971   -1.3547    3.8505 H   0  0  0  0  0  0  0  0  0  0  0  0
    1.9301   -0.3477    4.1675 H   0  0  0  0  0  0  0  0  0  0  0  0
    1.9882   -2.0426    4.6672 H   0  0  0  0  0  0  0  0  0  0  0  0
    1.2219   -0.0158   -3.8618 H   0  0  0  0  0  0  0  0  0  0  0  0
    1.2990    1.2716   -2.6529 H   0  0  0  0  0  0  0  0  0  0  0  0
    2.7719    0.3161   -3.0785 H   0  0  0  0  0  0  0  0  0  0  0  0
    2.1417   -3.8904    0.0850 H   0  0  0  0  0  0  0  0  0  0  0  0
    0.6154   -5.8034   -0.2264 H   0  0  0  0  0  0  0  0  0  0  0  0
   -1.8349   -5.4395   -0.3161 H   0  0  0  0  0  0  0  0  0  0  0  0
   -2.7670   -3.1911   -0.0966 H   0  0  0  0  0  0  0  0  0  0  0  0
   -3.2084   -1.0910    0.9061 H   0  0  0  0  0  0  0  0  0  0  0  0
   -3.0209   -1.0085   -0.8599 H   0  0  0  0  0  0  0  0  0  0  0  0
   -3.2575    0.8708    2.2643 H   0  0  0  0  0  0  0  0  0  0  0  0
   -3.5352    3.3135    2.4278 H   0  0  0  0  0  0  0  0  0  0  0  0
   -3.2305    4.7396    0.4225 H   0  0  0  0  0  0  0  0  0  0  0  0
   -2.6334    3.7253   -1.7411 H   0  0  0  0  0  0  0  0  0  0  0  0
   -1.9275    1.8903   -3.0327 H   0  0  0  0  0  0  0  0  0  0  0  0
   -1.3920    0.4182   -2.2317 H   0  0  0  0  0  0  0  0  0  0  0  0
   -3.0916    0.5840   -2.7565 H   0  0  0  0  0  0  0  0  0  0  0  0
    2.4429    3.4642   -0.3168 H   0  0  0  0  0  0  0  0  0  0  0  0
    2.0021    3.3252    1.4145 H   0  0  0  0  0  0  0  0  0  0  0  0
    3.2367    4.4986    0.8934 H   0  0  0  0  0  0  0  0  0  0  0  0
  1  2  1  0
  2  3  1  0
  3  4  2  0
  4  5  1  0
  5  6  2  0
  6  7  1  0
  7  8  1  0
  8  9  1  0
  7 10  2  0
 10 11  1  0
 11 12  2  0
 12 13  1  0
 13 14  2  0
 14 15  1  0
 15 16  2  0
 16 17  1  0
 17 18  1  0
 18 19  1  0
 19 20  2  0
 20 21  1  0
 21 22  2  0
 22 23  1  0
 23 24  2  0
 24 25  1  0
  5 26  1  0
 26 27  2  0
 26 28  1  0
 10  3  1  0
 16 11  1  0
 24 19  1  0
  1 29  1  0
  1 30  1  0
  1 31  1  0
  9 32  1  0
  9 33  1  0
  9 34  1  0
 12 35  1  0
 13 36  1  0
 14 37  1  0
 15 38  1  0
 18 39  1  0
 18 40  1  0
 20 41  1  0
 21 42  1  0
 22 43  1  0
 23 44  1  0
 25 45  1  0
 25 46  1  0
 25 47  1  0
 28 48  1  0
 28 49  1  0
 28 50  1  0
M  END
>  <Unnamed: 0>  (77) 
451

>  <ID>  (77) 
TRAIN_0451

>  <Canonical_Smiles>  (77) 
COc1nc(nc(OC)c1c2ccccc2OCc3ccccc3C)S(=O)C

>  <Inhibition>  (77) 
64.7

>  <TDC_conf_true_inhibitor>  (77) 
1

>  <TDC_conf_non_inhibitor>  (77) 
0

>  <split>  (77) 
1

$$$$
77
     RDKit          3D

 40 45  0  0  0  0  0  0  0  0999 V2000
   -1.8715   -0.9529   -2.0949 C   0  0  0  0  0  0  0  0  0  0  0  0
   -1.2025   -1.8399   -1.1201 C   0  0  0  0  0  0  0  0  0  0  0  0
   -1.6507   -2.9861   -0.6393 N   0  0  0  0  0  0  0  0  0  0  0  0
   -0.7334   -3.4538    0.2735 N   0  0  0  0  0  0  0  0  0  0  0  0
    0.2587   -2.5930    0.3189 C   0  0  0  0  0  0  0  0  0  0  0  0
    1.4619   -2.5607    1.0517 C   0  0  0  0  0  0  0  0  0  0  0  0
    2.3128   -1.5402    0.8721 C   0  0  0  0  0  0  0  0  0  0  0  0
    1.9190   -0.4863   -0.1133 C   0  0  0  0  0  0  0  0  0  0  0  0
    0.8333   -0.5045   -0.8339 N   0  0  0  0  0  0  0  0  0  0  0  0
    0.0224   -1.5625   -0.5670 N   0  0  0  0  0  0  0  0  0  0  0  0
    2.8585    0.5636   -0.2731 N   0  0  0  0  0  0  0  0  0  0  0  0
    2.9414    1.1554   -1.5008 N   0  0  0  0  0  0  0  0  0  0  0  0
    3.9721    1.9905   -1.4076 C   0  0  0  0  0  0  0  0  0  0  0  0
    4.5360    2.0172   -0.1225 C   0  0  0  0  0  0  0  0  0  0  0  0
    5.5755    2.7184    0.4919 C   0  0  0  0  0  0  0  0  0  0  0  0
    5.8255    2.5478    1.8120 N   0  0  0  0  0  0  0  0  0  0  0  0
    5.0384    1.7155    2.5245 C   0  0  0  0  0  0  0  0  0  0  0  0
    3.9892    0.9728    2.0011 C   0  0  0  0  0  0  0  0  0  0  0  0
    3.7733    1.1171    0.6240 C   0  0  0  0  0  0  0  0  0  0  0  0
   -2.7432   -0.0061   -1.4103 N   0  0  0  0  0  0  0  0  0  0  0  0
   -2.3747    1.2932   -1.3189 N   0  0  0  0  0  0  0  0  0  0  0  0
   -3.4048    1.8721   -0.6988 C   0  0  0  0  0  0  0  0  0  0  0  0
   -4.4381    0.9647   -0.3924 C   0  0  0  0  0  0  0  0  0  0  0  0
   -5.6892    1.0348    0.2229 C   0  0  0  0  0  0  0  0  0  0  0  0
   -6.4468   -0.0824    0.3577 N   0  0  0  0  0  0  0  0  0  0  0  0
   -5.9666   -1.2582   -0.1093 C   0  0  0  0  0  0  0  0  0  0  0  0
   -4.7415   -1.4267   -0.7384 C   0  0  0  0  0  0  0  0  0  0  0  0
   -3.9828   -0.2624   -0.8678 C   0  0  0  0  0  0  0  0  0  0  0  0
   -1.1590   -0.3851   -2.7029 H   0  0  0  0  0  0  0  0  0  0  0  0
   -2.4998   -1.5319   -2.7806 H   0  0  0  0  0  0  0  0  0  0  0  0
    1.6865   -3.3834    1.7217 H   0  0  0  0  0  0  0  0  0  0  0  0
    3.2770   -1.5317    1.3597 H   0  0  0  0  0  0  0  0  0  0  0  0
    4.2594    2.5635   -2.2804 H   0  0  0  0  0  0  0  0  0  0  0  0
    6.2078    3.4272   -0.0314 H   0  0  0  0  0  0  0  0  0  0  0  0
    5.2781    1.6607    3.5843 H   0  0  0  0  0  0  0  0  0  0  0  0
    3.3790    0.3522    2.6443 H   0  0  0  0  0  0  0  0  0  0  0  0
   -3.3626    2.9344   -0.4966 H   0  0  0  0  0  0  0  0  0  0  0  0
   -6.1101    1.9535    0.6146 H   0  0  0  0  0  0  0  0  0  0  0  0
   -6.6246   -2.1104    0.0442 H   0  0  0  0  0  0  0  0  0  0  0  0
   -4.4038   -2.3964   -1.0821 H   0  0  0  0  0  0  0  0  0  0  0  0
  1  2  1  0
  2  3  2  0
  3  4  1  0
  4  5  2  0
  5  6  1  0
  6  7  2  0
  7  8  1  0
  8  9  2  0
  9 10  1  0
  8 11  1  0
 11 12  1  0
 12 13  2  0
 13 14  1  0
 14 15  2  0
 15 16  1  0
 16 17  2  0
 17 18  1  0
 18 19  2  0
  1 20  1  0
 20 21  1  0
 21 22  2  0
 22 23  1  0
 23 24  2  0
 24 25  1  0
 25 26  2  0
 26 27  1  0
 27 28  2  0
 10  2  1  0
 10  5  1  0
 19 11  1  0
 19 14  1  0
 28 20  1  0
 28 23  1  0
  1 29  1  0
  1 30  1  0
  6 31  1  0
  7 32  1  0
 13 33  1  0
 15 34  1  0
 17 35  1  0
 18 36  1  0
 22 37  1  0
 24 38  1  0
 26 39  1  0
 27 40  1  0
M  END
>  <Unnamed: 0>  (78) 
452

>  <ID>  (78) 
TRAIN_0452

>  <Canonical_Smiles>  (78) 
C(c1nnc2ccc(nn12)n3ncc4cnccc34)n5ncc6cnccc56

>  <Inhibition>  (78) 
71.7

>  <TDC_conf_true_inhibitor>  (78) 
1

>  <TDC_conf_non_inhibitor>  (78) 
0

>  <split>  (78) 
1

$$$$
78
     RDKit          3D

 24 25  0  0  0  0  0  0  0  0999 V2000
   -4.8156    1.6825    1.1267 Cl  0  0  0  0  0  0  0  0  0  0  0  0
   -3.4719    0.9242    0.3765 C   0  0  0  0  0  0  0  0  0  0  0  0
   -2.9091    1.2915   -0.7748 C   0  0  0  0  0  0  0  0  0  0  0  0
   -3.4729    2.6333   -1.7085 Cl  0  0  0  0  0  0  0  0  0  0  0  0
   -1.7398    0.5359   -1.3110 C   0  0  0  0  0  0  0  0  0  0  0  0
   -1.2128    0.8622   -2.3741 O   0  0  0  0  0  0  0  0  0  0  0  0
   -1.3053   -0.5424   -0.5419 N   0  0  0  0  0  0  0  0  0  0  0  0
   -0.1189   -1.2877   -0.9576 C   0  0  0  0  0  0  0  0  0  0  0  0
    1.1461   -0.7145   -0.3619 C   0  0  0  0  0  0  0  0  0  0  0  0
    1.5735   -1.1089    0.9141 C   0  0  0  0  0  0  0  0  0  0  0  0
    2.7326   -0.5673    1.4719 C   0  0  0  0  0  0  0  0  0  0  0  0
    3.4714    0.3788    0.7637 C   0  0  0  0  0  0  0  0  0  0  0  0
    3.0498    0.7878   -0.5002 C   0  0  0  0  0  0  0  0  0  0  0  0
    1.8912    0.2470   -1.0598 C   0  0  0  0  0  0  0  0  0  0  0  0
   -1.8849   -0.9311    0.6485 N   0  0  0  0  0  0  0  0  0  0  0  0
   -2.8922   -0.2360    1.0615 C   0  0  0  0  0  0  0  0  0  0  0  0
   -0.2391   -2.3354   -0.6546 H   0  0  0  0  0  0  0  0  0  0  0  0
   -0.0478   -1.2914   -2.0520 H   0  0  0  0  0  0  0  0  0  0  0  0
    0.9974   -1.8370    1.4816 H   0  0  0  0  0  0  0  0  0  0  0  0
    3.0567   -0.8807    2.4607 H   0  0  0  0  0  0  0  0  0  0  0  0
    4.3730    0.8016    1.1987 H   0  0  0  0  0  0  0  0  0  0  0  0
    3.6206    1.5314   -1.0502 H   0  0  0  0  0  0  0  0  0  0  0  0
    1.5677    0.5844   -2.0434 H   0  0  0  0  0  0  0  0  0  0  0  0
   -3.3699   -0.5281    2.0117 H   0  0  0  0  0  0  0  0  0  0  0  0
  1  2  1  0
  2  3  2  0
  3  4  1  0
  3  5  1  0
  5  6  2  0
  5  7  1  0
  7  8  1  0
  8  9  1  0
  9 10  2  0
 10 11  1  0
 11 12  2  0
 12 13  1  0
 13 14  2  0
  7 15  1  0
 15 16  2  0
 16  2  1  0
 14  9  1  0
  8 17  1  0
  8 18  1  0
 10 19  1  0
 11 20  1  0
 12 21  1  0
 13 22  1  0
 14 23  1  0
 16 24  1  0
M  END
>  <Unnamed: 0>  (79) 
456

>  <ID>  (79) 
TRAIN_0456

>  <Canonical_Smiles>  (79) 
ClC1=C(Cl)C(=O)N(Cc2ccccc2)N=C1

>  <Inhibition>  (79) 
0.0

>  <TDC_conf_true_inhibitor>  (79) 
0

>  <TDC_conf_non_inhibitor>  (79) 
1

>  <split>  (79) 
1

$$$$
79
     RDKit          3D

 36 38  0  0  0  0  0  0  0  0999 V2000
    4.6773   -0.3605   -0.5483 C   0  0  0  0  0  0  0  0  0  0  0  0
    3.7556    0.7310   -0.0383 C   0  0  0  0  0  0  0  0  0  0  0  0
    2.3983    0.2660   -0.0280 O   0  0  0  0  0  0  0  0  0  0  0  0
    2.0081   -0.3838    1.0935 C   0  0  0  0  0  0  0  0  0  0  0  0
    2.6927   -0.6326    2.0719 O   0  0  0  0  0  0  0  0  0  0  0  0
    0.6388   -0.8834    0.9202 C   0  0  0  0  0  0  0  0  0  0  0  0
    0.3986   -2.2260    1.2335 C   0  0  0  0  0  0  0  0  0  0  0  0
   -0.8728   -2.7469    1.0394 C   0  0  0  0  0  0  0  0  0  0  0  0
   -1.1346   -4.1898    1.3645 C   0  0  0  0  0  0  0  0  0  0  0  0
   -1.9144   -2.0357    0.5598 N   0  0  0  0  0  0  0  0  0  0  0  0
   -1.6447   -0.7404    0.2988 C   0  0  0  0  0  0  0  0  0  0  0  0
   -0.4263   -0.0853    0.4581 C   0  0  0  0  0  0  0  0  0  0  0  0
   -0.6501    1.2911    0.1152 C   0  0  0  0  0  0  0  0  0  0  0  0
    0.1467    2.4583    0.1256 C   0  0  0  0  0  0  0  0  0  0  0  0
   -0.3939    3.6830   -0.2820 C   0  0  0  0  0  0  0  0  0  0  0  0
   -1.7183    3.7683   -0.6930 C   0  0  0  0  0  0  0  0  0  0  0  0
   -2.5380    2.6383   -0.7009 C   0  0  0  0  0  0  0  0  0  0  0  0
   -1.9857    1.4136   -0.2889 C   0  0  0  0  0  0  0  0  0  0  0  0
   -2.5571    0.1630   -0.1780 N   0  0  0  0  0  0  0  0  0  0  0  0
   -3.9340   -0.1440   -0.4919 C   0  0  0  0  0  0  0  0  0  0  0  0
    5.7072    0.0012   -0.6152 H   0  0  0  0  0  0  0  0  0  0  0  0
    4.3576   -0.7021   -1.5383 H   0  0  0  0  0  0  0  0  0  0  0  0
    4.6554   -1.2333    0.1120 H   0  0  0  0  0  0  0  0  0  0  0  0
    3.7939    1.5918   -0.7140 H   0  0  0  0  0  0  0  0  0  0  0  0
    4.0629    1.0851    0.9525 H   0  0  0  0  0  0  0  0  0  0  0  0
    1.2013   -2.8520    1.6135 H   0  0  0  0  0  0  0  0  0  0  0  0
   -2.1800   -4.4502    1.1697 H   0  0  0  0  0  0  0  0  0  0  0  0
   -0.5018   -4.8365    0.7487 H   0  0  0  0  0  0  0  0  0  0  0  0
   -0.9272   -4.3828    2.4217 H   0  0  0  0  0  0  0  0  0  0  0  0
    1.1801    2.4238    0.4554 H   0  0  0  0  0  0  0  0  0  0  0  0
    0.2288    4.5742   -0.2726 H   0  0  0  0  0  0  0  0  0  0  0  0
   -2.1244    4.7275   -1.0058 H   0  0  0  0  0  0  0  0  0  0  0  0
   -3.5748    2.7168   -1.0131 H   0  0  0  0  0  0  0  0  0  0  0  0
   -4.1046   -1.2220   -0.4497 H   0  0  0  0  0  0  0  0  0  0  0  0
   -4.5721    0.3612    0.2378 H   0  0  0  0  0  0  0  0  0  0  0  0
   -4.1486    0.2132   -1.5026 H   0  0  0  0  0  0  0  0  0  0  0  0
  1  2  1  0
  2  3  1  0
  3  4  1  0
  4  5  2  0
  4  6  1  0
  6  7  2  0
  7  8  1  0
  8  9  1  0
  8 10  2  0
 10 11  1  0
 11 12  2  0
 12 13  1  0
 13 14  2  0
 14 15  1  0
 15 16  2  0
 16 17  1  0
 17 18  2  0
 18 19  1  0
 19 20  1  0
 12  6  1  0
 19 11  1  0
 18 13  1  0
  1 21  1  0
  1 22  1  0
  1 23  1  0
  2 24  1  0
  2 25  1  0
  7 26  1  0
  9 27  1  0
  9 28  1  0
  9 29  1  0
 14 30  1  0
 15 31  1  0
 16 32  1  0
 17 33  1  0
 20 34  1  0
 20 35  1  0
 20 36  1  0
M  END
>  <Unnamed: 0>  (80) 
458

>  <ID>  (80) 
TRAIN_0458

>  <Canonical_Smiles>  (80) 
CCOC(=O)c1cc(C)nc2c1c3ccccc3n2C

>  <Inhibition>  (80) 
68.3

>  <TDC_conf_true_inhibitor>  (80) 
1

>  <TDC_conf_non_inhibitor>  (80) 
0

>  <split>  (80) 
1

$$$$
80
     RDKit          3D

 37 39  0  0  0  0  0  0  0  0999 V2000
   -4.0934    0.7247   -2.7568 C   0  0  0  0  0  0  0  0  0  0  0  0
   -3.1763    0.6354   -1.5736 C   0  0  0  0  0  0  0  0  0  0  0  0
   -1.8575    0.2397   -1.7431 C   0  0  0  0  0  0  0  0  0  0  0  0
   -1.0041    0.1772   -0.6393 C   0  0  0  0  0  0  0  0  0  0  0  0
    0.3434   -0.2444   -0.7557 N   0  0  0  0  0  0  0  0  0  0  0  0
    0.9890   -0.8819   -1.7912 C   0  0  0  0  0  0  0  0  0  0  0  0
    0.4374   -1.3258   -2.8748 N   0  0  0  0  0  0  0  0  0  0  0  0
    1.2266   -1.9257   -3.7706 C   0  0  0  0  0  0  0  0  0  0  0  0
    1.8999   -2.4457   -4.5576 N   0  0  0  0  0  0  0  0  0  0  0  0
    2.3791   -1.0493   -1.6161 O   0  0  0  0  0  0  0  0  0  0  0  0
    3.0180   -0.8083   -0.3854 C   0  0  0  0  0  0  0  0  0  0  0  0
    3.7748    0.3509   -0.2452 C   0  0  0  0  0  0  0  0  0  0  0  0
    4.3990    0.6018    0.9750 C   0  0  0  0  0  0  0  0  0  0  0  0
    4.2677   -0.3081    2.0281 C   0  0  0  0  0  0  0  0  0  0  0  0
    3.5187   -1.4766    1.8634 C   0  0  0  0  0  0  0  0  0  0  0  0
    2.8917   -1.7357    0.6467 C   0  0  0  0  0  0  0  0  0  0  0  0
   -1.5425    0.4850    0.6470 C   0  0  0  0  0  0  0  0  0  0  0  0
   -0.8163    0.4104    1.8669 C   0  0  0  0  0  0  0  0  0  0  0  0
   -1.4041    0.7392    3.0893 C   0  0  0  0  0  0  0  0  0  0  0  0
   -2.7292    1.1425    3.1235 C   0  0  0  0  0  0  0  0  0  0  0  0
   -3.4586    1.2065    1.9361 C   0  0  0  0  0  0  0  0  0  0  0  0
   -2.8975    0.8837    0.7079 C   0  0  0  0  0  0  0  0  0  0  0  0
   -3.6873    0.9632   -0.3706 N   0  0  0  0  0  0  0  0  0  0  0  0
   -4.1489   -0.2413   -3.2687 H   0  0  0  0  0  0  0  0  0  0  0  0
   -3.7316    1.4835   -3.4580 H   0  0  0  0  0  0  0  0  0  0  0  0
   -5.1054    1.0026   -2.4448 H   0  0  0  0  0  0  0  0  0  0  0  0
   -1.5153    0.0141   -2.7459 H   0  0  0  0  0  0  0  0  0  0  0  0
    0.9327    0.1126   -0.0181 H   0  0  0  0  0  0  0  0  0  0  0  0
    3.8820    1.0470   -1.0721 H   0  0  0  0  0  0  0  0  0  0  0  0
    4.9987    1.4999    1.1052 H   0  0  0  0  0  0  0  0  0  0  0  0
    4.7657   -0.1139    2.9759 H   0  0  0  0  0  0  0  0  0  0  0  0
    3.4373   -2.1886    2.6811 H   0  0  0  0  0  0  0  0  0  0  0  0
    2.3207   -2.6492    0.5066 H   0  0  0  0  0  0  0  0  0  0  0  0
    0.2189    0.0822    1.8897 H   0  0  0  0  0  0  0  0  0  0  0  0
   -0.8281    0.6768    4.0098 H   0  0  0  0  0  0  0  0  0  0  0  0
   -3.2035    1.4009    4.0665 H   0  0  0  0  0  0  0  0  0  0  0  0
   -4.5018    1.5144    1.9689 H   0  0  0  0  0  0  0  0  0  0  0  0
  1  2  1  0
  2  3  2  0
  3  4  1  0
  4  5  1  0
  5  6  1  0
  6  7  2  0
  7  8  1  0
  8  9  3  0
  6 10  1  0
 10 11  1  0
 11 12  2  0
 12 13  1  0
 13 14  2  0
 14 15  1  0
 15 16  2  0
  4 17  2  0
 17 18  1  0
 18 19  2  0
 19 20  1  0
 20 21  2  0
 21 22  1  0
 22 23  2  0
 23  2  1  0
 16 11  1  0
 22 17  1  0
  1 24  1  0
  1 25  1  0
  1 26  1  0
  3 27  1  0
  5 28  1  0
 12 29  1  0
 13 30  1  0
 14 31  1  0
 15 32  1  0
 16 33  1  0
 18 34  1  0
 19 35  1  0
 20 36  1  0
 21 37  1  0
M  END
>  <Unnamed: 0>  (81) 
465

>  <ID>  (81) 
TRAIN_0465

>  <Canonical_Smiles>  (81) 
Cc1cc(N\C(=N\C#N)\Oc2ccccc2)c3ccccc3n1

>  <Inhibition>  (81) 
4.34

>  <TDC_conf_true_inhibitor>  (81) 
0

>  <TDC_conf_non_inhibitor>  (81) 
1

>  <split>  (81) 
1

$$$$
81
     RDKit          3D

 55 59  0  0  0  0  0  0  0  0999 V2000
   -6.7874   -0.0632   -1.7227 C   0  0  0  0  0  0  0  0  0  0  0  0
   -6.3209    1.1345   -0.8739 C   0  0  0  0  0  0  0  0  0  0  0  0
   -5.5305    0.7515    0.3258 N   0  0  0  0  0  0  0  0  0  0  0  0
   -6.3531   -0.2393    1.0613 C   0  0  0  0  0  0  0  0  0  0  0  0
   -6.7837   -1.4366    0.1991 C   0  0  0  0  0  0  0  0  0  0  0  0
   -7.5338   -1.0061   -0.9438 O   0  0  0  0  0  0  0  0  0  0  0  0
   -4.1486    0.2987   -0.0013 C   0  0  0  0  0  0  0  0  0  0  0  0
   -3.3024    1.4853   -0.5140 C   0  0  0  0  0  0  0  0  0  0  0  0
   -1.8719    1.0608   -0.8417 C   0  0  0  0  0  0  0  0  0  0  0  0
   -1.2447    0.4588    0.3372 N   0  0  0  0  0  0  0  0  0  0  0  0
   -1.9706   -0.7066    0.8622 C   0  0  0  0  0  0  0  0  0  0  0  0
   -3.4091   -0.3197    1.2061 C   0  0  0  0  0  0  0  0  0  0  0  0
    0.1493    0.2762    0.3119 C   0  0  0  0  0  0  0  0  0  0  0  0
    0.8429    0.0936    1.5166 C   0  0  0  0  0  0  0  0  0  0  0  0
    2.2321   -0.0904    1.5486 C   0  0  0  0  0  0  0  0  0  0  0  0
    2.9982   -0.0867    0.3742 C   0  0  0  0  0  0  0  0  0  0  0  0
    2.3062    0.0999   -0.8322 C   0  0  0  0  0  0  0  0  0  0  0  0
    0.9136    0.2833   -0.8606 C   0  0  0  0  0  0  0  0  0  0  0  0
    4.4627   -0.2756    0.4251 C   0  0  0  0  0  0  0  0  0  0  0  0
    5.3369    0.3524   -0.4638 C   0  0  0  0  0  0  0  0  0  0  0  0
    6.7182    0.1286   -0.3630 C   0  0  0  0  0  0  0  0  0  0  0  0
    7.6374    0.7373   -1.2343 C   0  0  0  0  0  0  0  0  0  0  0  0
    9.0071    0.4940   -1.1091 C   0  0  0  0  0  0  0  0  0  0  0  0
    9.4765   -0.3586   -0.1129 C   0  0  0  0  0  0  0  0  0  0  0  0
    8.5772   -0.9691    0.7614 C   0  0  0  0  0  0  0  0  0  0  0  0
    7.1963   -0.7294    0.6426 C   0  0  0  0  0  0  0  0  0  0  0  0
    6.2503   -1.3056    1.4887 C   0  0  0  0  0  0  0  0  0  0  0  0
    4.9153   -1.0974    1.4051 N   0  0  0  0  0  0  0  0  0  0  0  0
   -5.9453   -0.5780   -2.1979 H   0  0  0  0  0  0  0  0  0  0  0  0
   -7.4454    0.2908   -2.5230 H   0  0  0  0  0  0  0  0  0  0  0  0
   -5.7923    1.8552   -1.5029 H   0  0  0  0  0  0  0  0  0  0  0  0
   -7.2125    1.6675   -0.5164 H   0  0  0  0  0  0  0  0  0  0  0  0
   -7.2593    0.2801    1.4024 H   0  0  0  0  0  0  0  0  0  0  0  0
   -5.8649   -0.5758    1.9802 H   0  0  0  0  0  0  0  0  0  0  0  0
   -7.4321   -2.0965    0.7844 H   0  0  0  0  0  0  0  0  0  0  0  0
   -5.9246   -2.0295   -0.1341 H   0  0  0  0  0  0  0  0  0  0  0  0
   -4.1844   -0.4662   -0.7870 H   0  0  0  0  0  0  0  0  0  0  0  0
   -3.2825    2.2800    0.2439 H   0  0  0  0  0  0  0  0  0  0  0  0
   -3.7289    1.9193   -1.4233 H   0  0  0  0  0  0  0  0  0  0  0  0
   -1.3199    1.9553   -1.1565 H   0  0  0  0  0  0  0  0  0  0  0  0
   -1.8835    0.3527   -1.6804 H   0  0  0  0  0  0  0  0  0  0  0  0
   -1.9685   -1.5141    0.1180 H   0  0  0  0  0  0  0  0  0  0  0  0
   -1.5092   -1.1057    1.7730 H   0  0  0  0  0  0  0  0  0  0  0  0
   -3.9118   -1.2306    1.5482 H   0  0  0  0  0  0  0  0  0  0  0  0
   -3.4055    0.3902    2.0436 H   0  0  0  0  0  0  0  0  0  0  0  0
    0.3038    0.1170    2.4607 H   0  0  0  0  0  0  0  0  0  0  0  0
    2.7196   -0.2281    2.5125 H   0  0  0  0  0  0  0  0  0  0  0  0
    2.8374    0.0856   -1.7810 H   0  0  0  0  0  0  0  0  0  0  0  0
    0.4458    0.4085   -1.8320 H   0  0  0  0  0  0  0  0  0  0  0  0
    4.9533    1.0275   -1.2220 H   0  0  0  0  0  0  0  0  0  0  0  0
    7.2923    1.4073   -2.0189 H   0  0  0  0  0  0  0  0  0  0  0  0
    9.7072    0.9715   -1.7900 H   0  0  0  0  0  0  0  0  0  0  0  0
   10.5427   -0.5471   -0.0160 H   0  0  0  0  0  0  0  0  0  0  0  0
    8.9572   -1.6313    1.5361 H   0  0  0  0  0  0  0  0  0  0  0  0
    6.5479   -1.9767    2.2902 H   0  0  0  0  0  0  0  0  0  0  0  0
  1  2  1  0
  2  3  1  0
  3  4  1  0
  4  5  1  0
  5  6  1  0
  3  7  1  0
  7  8  1  0
  8  9  1  0
  9 10  1  0
 10 11  1  0
 11 12  1  0
 10 13  1  0
 13 14  2  0
 14 15  1  0
 15 16  2  0
 16 17  1  0
 17 18  2  0
 16 19  1  0
 19 20  2  0
 20 21  1  0
 21 22  2  0
 22 23  1  0
 23 24  2  0
 24 25  1  0
 25 26  2  0
 26 27  1  0
 27 28  2  0
  6  1  1  0
 12  7  1  0
 18 13  1  0
 28 19  1  0
 26 21  1  0
  1 29  1  0
  1 30  1  0
  2 31  1  0
  2 32  1  0
  4 33  1  0
  4 34  1  0
  5 35  1  0
  5 36  1  0
  7 37  1  0
  8 38  1  0
  8 39  1  0
  9 40  1  0
  9 41  1  0
 11 42  1  0
 11 43  1  0
 12 44  1  0
 12 45  1  0
 14 46  1  0
 15 47  1  0
 17 48  1  0
 18 49  1  0
 20 50  1  0
 22 51  1  0
 23 52  1  0
 24 53  1  0
 25 54  1  0
 27 55  1  0
M  END
>  <Unnamed: 0>  (82) 
470

>  <ID>  (82) 
TRAIN_0470

>  <Canonical_Smiles>  (82) 
C1CN(CCO1)C2CCN(CC2)c3ccc(cc3)c4cc5ccccc5cn4

>  <Inhibition>  (82) 
28.1

>  <TDC_conf_true_inhibitor>  (82) 
0

>  <TDC_conf_non_inhibitor>  (82) 
1

>  <split>  (82) 
1

$$$$
82
     RDKit          3D

 34 35  0  0  0  0  0  0  0  0999 V2000
   -5.0792    0.1142    0.4553 C   0  0  0  0  0  0  0  0  0  0  0  0
   -3.8032    0.3378   -0.2186 N   0  0  0  0  0  0  0  0  0  0  0  0
   -3.0635   -0.9278   -0.3741 C   0  0  0  0  0  0  0  0  0  0  0  0
   -1.5761   -0.7183   -0.7118 C   0  0  0  0  0  0  0  0  0  0  0  0
   -0.8836    0.0758    0.3082 N   0  0  0  0  0  0  0  0  0  0  0  0
   -1.7373    0.8884    1.1777 C   0  0  0  0  0  0  0  0  0  0  0  0
   -3.0017    1.3844    0.4508 C   0  0  0  0  0  0  0  0  0  0  0  0
    0.4914    0.0828    0.5125 C   0  0  0  0  0  0  0  0  0  0  0  0
    0.9958    0.6948    1.4549 O   0  0  0  0  0  0  0  0  0  0  0  0
    1.3290   -0.7223   -0.4775 C   0  0  0  0  0  0  0  0  0  0  0  0
    2.8060   -0.3989   -0.4496 C   0  0  0  0  0  0  0  0  0  0  0  0
    3.6722   -1.1002    0.4019 C   0  0  0  0  0  0  0  0  0  0  0  0
    5.0347   -0.7955    0.4335 C   0  0  0  0  0  0  0  0  0  0  0  0
    5.5356    0.2164   -0.3824 C   0  0  0  0  0  0  0  0  0  0  0  0
    7.3801    0.6296   -0.3399 Br  0  0  0  0  0  0  0  0  0  0  0  0
    4.6867    0.9293   -1.2261 C   0  0  0  0  0  0  0  0  0  0  0  0
    3.3242    0.6244   -1.2570 C   0  0  0  0  0  0  0  0  0  0  0  0
   -4.9450   -0.2245    1.4889 H   0  0  0  0  0  0  0  0  0  0  0  0
   -5.6726   -0.6351   -0.0804 H   0  0  0  0  0  0  0  0  0  0  0  0
   -5.6738    1.0345    0.4673 H   0  0  0  0  0  0  0  0  0  0  0  0
   -3.5300   -1.5199   -1.1700 H   0  0  0  0  0  0  0  0  0  0  0  0
   -3.1224   -1.5198    0.5496 H   0  0  0  0  0  0  0  0  0  0  0  0
   -1.4725   -0.1865   -1.6651 H   0  0  0  0  0  0  0  0  0  0  0  0
   -1.0843   -1.6906   -0.8136 H   0  0  0  0  0  0  0  0  0  0  0  0
   -1.1753    1.7465    1.5623 H   0  0  0  0  0  0  0  0  0  0  0  0
   -2.0134    0.2636    2.0356 H   0  0  0  0  0  0  0  0  0  0  0  0
   -3.6092    1.9778    1.1454 H   0  0  0  0  0  0  0  0  0  0  0  0
   -2.6835    2.0809   -0.3358 H   0  0  0  0  0  0  0  0  0  0  0  0
    0.9613   -0.5493   -1.4957 H   0  0  0  0  0  0  0  0  0  0  0  0
    1.1884   -1.7876   -0.2582 H   0  0  0  0  0  0  0  0  0  0  0  0
    3.2884   -1.8807    1.0553 H   0  0  0  0  0  0  0  0  0  0  0  0
    5.6914   -1.3459    1.1015 H   0  0  0  0  0  0  0  0  0  0  0  0
    5.0723    1.7258   -1.8566 H   0  0  0  0  0  0  0  0  0  0  0  0
    2.6688    1.1959   -1.9106 H   0  0  0  0  0  0  0  0  0  0  0  0
  1  2  1  0
  2  3  1  0
  3  4  1  0
  4  5  1  0
  5  6  1  0
  6  7  1  0
  5  8  1  0
  8  9  2  0
  8 10  1  0
 10 11  1  0
 11 12  2  0
 12 13  1  0
 13 14  2  0
 14 15  1  0
 14 16  1  0
 16 17  2  0
  7  2  1  0
 17 11  1  0
  1 18  1  0
  1 19  1  0
  1 20  1  0
  3 21  1  0
  3 22  1  0
  4 23  1  0
  4 24  1  0
  6 25  1  0
  6 26  1  0
  7 27  1  0
  7 28  1  0
 10 29  1  0
 10 30  1  0
 12 31  1  0
 13 32  1  0
 16 33  1  0
 17 34  1  0
M  END
>  <Unnamed: 0>  (83) 
475

>  <ID>  (83) 
TRAIN_0475

>  <Canonical_Smiles>  (83) 
CN1CCN(CC1)C(=O)Cc2ccc(Br)cc2

>  <Inhibition>  (83) 
35.7

>  <TDC_conf_true_inhibitor>  (83) 
0

>  <TDC_conf_non_inhibitor>  (83) 
1

>  <split>  (83) 
1

$$$$
83
     RDKit          3D

 29 30  0  0  0  0  0  0  0  0999 V2000
   -3.6803   -1.5139   -0.7817 C   0  0  0  0  0  0  0  0  0  0  0  0
   -3.5848   -0.1219   -0.2603 C   0  0  0  0  0  0  0  0  0  0  0  0
   -4.9978    0.8608   -0.1866 S   0  0  0  0  0  0  0  0  0  0  0  0
   -4.0779    2.1108    0.5133 C   0  0  0  0  0  0  0  0  0  0  0  0
   -4.8615    3.7860    1.0212 Br  0  0  0  0  0  0  0  0  0  0  0  0
   -2.8023    1.8702    0.6937 N   0  0  0  0  0  0  0  0  0  0  0  0
   -2.5032    0.6004    0.2248 C   0  0  0  0  0  0  0  0  0  0  0  0
   -1.1344    0.1109    0.3079 C   0  0  0  0  0  0  0  0  0  0  0  0
   -0.5138   -0.5282   -0.7729 C   0  0  0  0  0  0  0  0  0  0  0  0
    0.8089   -0.9722   -0.6718 C   0  0  0  0  0  0  0  0  0  0  0  0
    1.5311   -0.7679    0.5040 C   0  0  0  0  0  0  0  0  0  0  0  0
    2.8914   -1.2093    0.5990 N   0  0  0  0  0  0  0  0  0  0  0  0
    4.0549   -0.4969   -0.3929 S   0  0  0  0  0  6  0  0  0  0  0  0
    5.3220   -1.0647    0.0157 O   0  0  0  0  0  0  0  0  0  0  0  0
    3.6190   -0.5516   -1.7707 O   0  0  0  0  0  0  0  0  0  0  0  0
    4.0355    1.2039    0.1409 C   0  0  0  0  0  0  0  0  0  0  0  0
    0.9143   -0.1199    1.5844 C   0  0  0  0  0  0  0  0  0  0  0  0
    1.7723    0.1567    3.0593 Cl  0  0  0  0  0  0  0  0  0  0  0  0
   -0.4060    0.3219    1.4860 C   0  0  0  0  0  0  0  0  0  0  0  0
   -2.9937   -2.1799   -0.2494 H   0  0  0  0  0  0  0  0  0  0  0  0
   -3.4309   -1.5381   -1.8473 H   0  0  0  0  0  0  0  0  0  0  0  0
   -4.6875   -1.9264   -0.6597 H   0  0  0  0  0  0  0  0  0  0  0  0
   -1.0410   -0.6736   -1.7134 H   0  0  0  0  0  0  0  0  0  0  0  0
    1.2649   -1.4780   -1.5206 H   0  0  0  0  0  0  0  0  0  0  0  0
    3.2422   -1.3374    1.5514 H   0  0  0  0  0  0  0  0  0  0  0  0
    3.0667    1.6478   -0.0928 H   0  0  0  0  0  0  0  0  0  0  0  0
    4.2442    1.2431    1.2113 H   0  0  0  0  0  0  0  0  0  0  0  0
    4.8205    1.7321   -0.4053 H   0  0  0  0  0  0  0  0  0  0  0  0
   -0.8730    0.8353    2.3247 H   0  0  0  0  0  0  0  0  0  0  0  0
  1  2  1  0
  2  3  1  0
  3  4  1  0
  4  5  1  0
  4  6  2  0
  6  7  1  0
  7  8  1  0
  8  9  2  0
  9 10  1  0
 10 11  2  0
 11 12  1  0
 12 13  1  0
 13 14  2  0
 13 15  2  0
 13 16  1  0
 11 17  1  0
 17 18  1  0
 17 19  2  0
  7  2  2  0
 19  8  1  0
  1 20  1  0
  1 21  1  0
  1 22  1  0
  9 23  1  0
 10 24  1  0
 12 25  1  0
 16 26  1  0
 16 27  1  0
 16 28  1  0
 19 29  1  0
M  END
>  <Unnamed: 0>  (84) 
482

>  <ID>  (84) 
TRAIN_0482

>  <Canonical_Smiles>  (84) 
Cc1sc(Br)nc1c2ccc(NS(=O)(=O)C)c(Cl)c2

>  <Inhibition>  (84) 
44.0

>  <TDC_conf_true_inhibitor>  (84) 
1

>  <TDC_conf_non_inhibitor>  (84) 
0

>  <split>  (84) 
1

$$$$
84
     RDKit          3D

 38 42  0  0  0  0  0  0  0  0999 V2000
   -6.1188    1.5354   -0.6378 C   0  0  0  0  0  0  0  0  0  0  0  0
   -4.7949    1.0741   -0.2962 N   0  0  0  0  0  0  0  0  0  0  0  0
   -4.1089    0.0378   -0.8650 C   0  0  0  0  0  0  0  0  0  0  0  0
   -2.8879   -0.0322   -0.2172 C   0  0  0  0  0  0  0  0  0  0  0  0
   -2.9595    1.0238    0.7288 C   0  0  0  0  0  0  0  0  0  0  0  0
   -4.1148    1.6913    0.6808 N   0  0  0  0  0  0  0  0  0  0  0  0
   -1.7787   -0.9444   -0.4189 C   0  0  0  0  0  0  0  0  0  0  0  0
   -1.8953   -1.8969   -1.5595 C   0  0  0  0  0  0  0  0  0  0  0  0
   -0.8728   -2.7421   -1.7549 C   0  0  0  0  0  0  0  0  0  0  0  0
    0.2406   -2.6856   -0.8918 C   0  0  0  0  0  0  0  0  0  0  0  0
    1.3626   -3.3683   -0.8344 N   0  0  0  0  0  0  0  0  0  0  0  0
    2.0984   -2.8781    0.2207 N   0  0  0  0  0  0  0  0  0  0  0  0
    1.4103   -1.8989    0.7791 C   0  0  0  0  0  0  0  0  0  0  0  0
    1.8141   -1.0639    1.9308 C   0  0  0  0  0  0  0  0  0  0  0  0
    2.1820    0.2814    1.5059 N   0  0  0  0  0  0  0  0  0  0  0  0
    1.4493    1.3361    1.9403 N   0  0  0  0  0  0  0  0  0  0  0  0
    2.0630    2.3909    1.3935 C   0  0  0  0  0  0  0  0  0  0  0  0
    3.1923    2.0272    0.6381 C   0  0  0  0  0  0  0  0  0  0  0  0
    4.0806    2.7794   -0.0572 N   0  0  0  0  0  0  0  0  0  0  0  0
    5.0598    2.0666   -0.6640 C   0  0  0  0  0  0  0  0  0  0  0  0
    5.1995    0.6843   -0.6176 C   0  0  0  0  0  0  0  0  0  0  0  0
    6.6244   -0.1609   -1.5229 Br  0  0  0  0  0  0  0  0  0  0  0  0
    4.2813   -0.0788    0.0993 C   0  0  0  0  0  0  0  0  0  0  0  0
    3.2616    0.6415    0.7319 C   0  0  0  0  0  0  0  0  0  0  0  0
    0.2163   -1.7474    0.1193 N   0  0  0  0  0  0  0  0  0  0  0  0
   -0.7761   -0.8614    0.4003 N   0  0  0  0  0  0  0  0  0  0  0  0
   -6.0487    2.5780   -0.9577 H   0  0  0  0  0  0  0  0  0  0  0  0
   -6.5194    0.9223   -1.4488 H   0  0  0  0  0  0  0  0  0  0  0  0
   -6.7540    1.4454    0.2469 H   0  0  0  0  0  0  0  0  0  0  0  0
   -4.5506   -0.5436   -1.6611 H   0  0  0  0  0  0  0  0  0  0  0  0
   -2.2055    1.3260    1.4471 H   0  0  0  0  0  0  0  0  0  0  0  0
   -2.7640   -1.9001   -2.2013 H   0  0  0  0  0  0  0  0  0  0  0  0
   -0.8747   -3.4660   -2.5620 H   0  0  0  0  0  0  0  0  0  0  0  0
    1.0091   -0.9855    2.6697 H   0  0  0  0  0  0  0  0  0  0  0  0
    2.6904   -1.4864    2.4345 H   0  0  0  0  0  0  0  0  0  0  0  0
    1.6722    3.3837    1.5683 H   0  0  0  0  0  0  0  0  0  0  0  0
    5.7689    2.6755   -1.2203 H   0  0  0  0  0  0  0  0  0  0  0  0
    4.3477   -1.1601    0.1546 H   0  0  0  0  0  0  0  0  0  0  0  0
  1  2  1  0
  2  3  1  0
  3  4  2  0
  4  5  1  0
  5  6  2  0
  4  7  1  0
  7  8  1  0
  8  9  2  0
  9 10  1  0
 10 11  2  0
 11 12  1  0
 12 13  2  0
 13 14  1  0
 14 15  1  0
 15 16  1  0
 16 17  2  0
 17 18  1  0
 18 19  2  0
 19 20  1  0
 20 21  2  0
 21 22  1  0
 21 23  1  0
 23 24  2  0
 13 25  1  0
 25 26  1  0
  6  2  1  0
 26  7  2  0
 25 10  1  0
 24 15  1  0
 24 18  1  0
  1 27  1  0
  1 28  1  0
  1 29  1  0
  3 30  1  0
  5 31  1  0
  8 32  1  0
  9 33  1  0
 14 34  1  0
 14 35  1  0
 17 36  1  0
 20 37  1  0
 23 38  1  0
M  END
>  <Unnamed: 0>  (85) 
488

>  <ID>  (85) 
TRAIN_0488

>  <Canonical_Smiles>  (85) 
Cn1cc(cn1)c2ccc3nnc(Cn4ncc5ncc(Br)cc45)n3n2

>  <Inhibition>  (85) 
39.7

>  <TDC_conf_true_inhibitor>  (85) 
0

>  <TDC_conf_non_inhibitor>  (85) 
1

>  <split>  (85) 
1

$$$$
85
     RDKit          3D

 40 44  0  0  0  0  0  0  0  0999 V2000
   -1.9415    2.5737    2.5961 N   0  0  0  0  0  0  0  0  0  0  0  0
   -0.8777    2.0516    1.8426 C   0  0  0  0  0  0  0  0  0  0  0  0
    0.3394    2.5499    2.1451 N   0  0  0  0  0  0  0  0  0  0  0  0
    1.4071    2.1024    1.4476 C   0  0  0  0  0  0  0  0  0  0  0  0
    1.3375    1.1569    0.4334 C   0  0  0  0  0  0  0  0  0  0  0  0
    0.0675    0.6559    0.1300 C   0  0  0  0  0  0  0  0  0  0  0  0
   -1.0699    1.0952    0.8309 C   0  0  0  0  0  0  0  0  0  0  0  0
   -2.3952    0.5648    0.5159 C   0  0  0  0  0  0  0  0  0  0  0  0
   -2.4672   -0.3304   -0.5251 O   0  0  0  0  0  0  0  0  0  0  0  0
   -3.7893   -0.6544   -0.5967 C   0  0  0  0  0  0  0  0  0  0  0  0
   -4.3961   -1.5295   -1.4886 C   0  0  0  0  0  0  0  0  0  0  0  0
   -5.7805   -1.6807   -1.3411 C   0  0  0  0  0  0  0  0  0  0  0  0
   -6.4894   -0.9858   -0.3522 C   0  0  0  0  0  0  0  0  0  0  0  0
   -5.8366   -0.1102    0.5294 C   0  0  0  0  0  0  0  0  0  0  0  0
   -4.4522    0.0506    0.3932 C   0  0  0  0  0  0  0  0  0  0  0  0
   -3.5581    0.8211    1.0934 N   0  0  0  0  0  0  0  0  0  0  0  0
    2.5325    0.7090   -0.2858 C   0  0  0  0  0  0  0  0  0  0  0  0
    2.8181    1.2520   -1.5416 C   0  0  0  0  0  0  0  0  0  0  0  0
    3.8855    0.9255   -2.3004 N   0  0  0  0  0  0  0  0  0  0  0  0
    4.7264    0.0047   -1.7831 C   0  0  0  0  0  0  0  0  0  0  0  0
    4.5600   -0.6167   -0.5446 C   0  0  0  0  0  0  0  0  0  0  0  0
    5.4787   -1.5712   -0.0714 C   0  0  0  0  0  0  0  0  0  0  0  0
    5.2930   -2.1838    1.1661 C   0  0  0  0  0  0  0  0  0  0  0  0
    4.1891   -1.8512    1.9415 C   0  0  0  0  0  0  0  0  0  0  0  0
    3.2705   -0.9041    1.4810 C   0  0  0  0  0  0  0  0  0  0  0  0
    3.4325   -0.2608    0.2305 C   0  0  0  0  0  0  0  0  0  0  0  0
   -2.6048    3.0144    1.9620 H   0  0  0  0  0  0  0  0  0  0  0  0
   -2.4611    1.8001    3.0085 H   0  0  0  0  0  0  0  0  0  0  0  0
    2.3557    2.5449    1.7438 H   0  0  0  0  0  0  0  0  0  0  0  0
   -0.0307   -0.0905   -0.6572 H   0  0  0  0  0  0  0  0  0  0  0  0
   -3.8318   -2.0578   -2.2466 H   0  0  0  0  0  0  0  0  0  0  0  0
   -6.3167   -2.3525   -2.0095 H   0  0  0  0  0  0  0  0  0  0  0  0
   -7.5654   -1.1261   -0.2647 H   0  0  0  0  0  0  0  0  0  0  0  0
   -6.3839    0.4283    1.2951 H   0  0  0  0  0  0  0  0  0  0  0  0
    2.1663    2.0008   -1.9877 H   0  0  0  0  0  0  0  0  0  0  0  0
    5.5753   -0.2314   -2.4204 H   0  0  0  0  0  0  0  0  0  0  0  0
    6.3473   -1.8436   -0.6677 H   0  0  0  0  0  0  0  0  0  0  0  0
    6.0087   -2.9198    1.5235 H   0  0  0  0  0  0  0  0  0  0  0  0
    4.0385   -2.3268    2.9077 H   0  0  0  0  0  0  0  0  0  0  0  0
    2.4181   -0.6744    2.1181 H   0  0  0  0  0  0  0  0  0  0  0  0
  1  2  1  0
  2  3  2  0
  3  4  1  0
  4  5  2  0
  5  6  1  0
  6  7  2  0
  7  8  1  0
  8  9  1  0
  9 10  1  0
 10 11  2  0
 11 12  1  0
 12 13  2  0
 13 14  1  0
 14 15  2  0
 15 16  1  0
  5 17  1  0
 17 18  2  0
 18 19  1  0
 19 20  2  0
 20 21  1  0
 21 22  2  0
 22 23  1  0
 23 24  2  0
 24 25  1  0
 25 26  2  0
  7  2  1  0
 16  8  2  0
 15 10  1  0
 26 17  1  0
 26 21  1  0
  1 27  1  0
  1 28  1  0
  4 29  1  0
  6 30  1  0
 11 31  1  0
 12 32  1  0
 13 33  1  0
 14 34  1  0
 18 35  1  0
 20 36  1  0
 22 37  1  0
 23 38  1  0
 24 39  1  0
 25 40  1  0
M  END
>  <Unnamed: 0>  (86) 
504

>  <ID>  (86) 
TRAIN_0504

>  <Canonical_Smiles>  (86) 
Nc1ncc(cc1c2oc3ccccc3n2)c4cncc5ccccc45

>  <Inhibition>  (86) 
50.0

>  <TDC_conf_true_inhibitor>  (86) 
1

>  <TDC_conf_non_inhibitor>  (86) 
0

>  <split>  (86) 
1

$$$$
86
     RDKit          3D

 30 32  0  0  0  0  0  0  0  0999 V2000
    3.9282    2.1408    0.0032 O   0  0  0  0  0  0  0  0  0  0  0  0
    4.3395    0.8675   -0.0924 C   0  0  0  0  0  0  0  0  0  0  0  0
    5.5236    0.5752   -0.1302 O   0  0  0  0  0  0  0  0  0  0  0  0
    3.2373   -0.1196   -0.1459 C   0  0  0  0  0  0  0  0  0  0  0  0
    1.8884    0.2850   -0.0978 C   0  0  0  0  0  0  0  0  0  0  0  0
    0.8320   -0.6442   -0.1479 C   0  0  0  0  0  0  0  0  0  0  0  0
    1.1861   -2.0007   -0.2484 C   0  0  0  0  0  0  0  0  0  0  0  0
    2.5233   -2.4142   -0.2969 C   0  0  0  0  0  0  0  0  0  0  0  0
    3.5449   -1.4778   -0.2459 C   0  0  0  0  0  0  0  0  0  0  0  0
    4.8205   -1.9697   -0.2990 O   0  0  0  0  0  0  0  0  0  0  0  0
   -0.5400   -0.2305   -0.0989 N   0  0  0  0  0  0  0  0  0  0  0  0
   -1.6292   -1.0823   -0.1429 C   0  0  0  0  0  0  0  0  0  0  0  0
   -1.7183   -2.2943   -0.2269 O   0  0  0  0  0  0  0  0  0  0  0  0
   -2.8304   -0.2583   -0.0676 C   0  0  0  0  0  0  0  0  0  0  0  0
   -4.1653   -0.6189   -0.0735 C   0  0  0  0  0  0  0  0  0  0  0  0
   -5.1089    0.4094    0.0125 C   0  0  0  0  0  0  0  0  0  0  0  0
   -4.7008    1.7552    0.1012 C   0  0  0  0  0  0  0  0  0  0  0  0
   -3.3436    2.0914    0.1051 C   0  0  0  0  0  0  0  0  0  0  0  0
   -2.4323    1.0549    0.0190 C   0  0  0  0  0  0  0  0  0  0  0  0
   -0.9741    1.0789   -0.0005 C   0  0  0  0  0  0  0  0  0  0  0  0
   -0.3742    2.1369    0.0652 O   0  0  0  0  0  0  0  0  0  0  0  0
    4.7492    2.6749    0.0288 H   0  0  0  0  0  0  0  0  0  0  0  0
    1.6912    1.3496   -0.0201 H   0  0  0  0  0  0  0  0  0  0  0  0
    0.4415   -2.7902   -0.2932 H   0  0  0  0  0  0  0  0  0  0  0  0
    2.7603   -3.4728   -0.3748 H   0  0  0  0  0  0  0  0  0  0  0  0
    5.4537   -1.2202   -0.2554 H   0  0  0  0  0  0  0  0  0  0  0  0
   -4.4651   -1.6600   -0.1424 H   0  0  0  0  0  0  0  0  0  0  0  0
   -6.1708    0.1694    0.0110 H   0  0  0  0  0  0  0  0  0  0  0  0
   -5.4520    2.5406    0.1673 H   0  0  0  0  0  0  0  0  0  0  0  0
   -3.0147    3.1237    0.1729 H   0  0  0  0  0  0  0  0  0  0  0  0
  1  2  1  0
  2  3  2  0
  2  4  1  0
  4  5  2  0
  5  6  1  0
  6  7  2  0
  7  8  1  0
  8  9  2  0
  9 10  1  0
  6 11  1  0
 11 12  1  0
 12 13  2  0
 12 14  1  0
 14 15  2  0
 15 16  1  0
 16 17  2  0
 17 18  1  0
 18 19  2  0
 19 20  1  0
 20 21  2  0
  9  4  1  0
 20 11  1  0
 19 14  1  0
  1 22  1  0
  5 23  1  0
  7 24  1  0
  8 25  1  0
 10 26  1  0
 15 27  1  0
 16 28  1  0
 17 29  1  0
 18 30  1  0
M  END
>  <Unnamed: 0>  (87) 
516

>  <ID>  (87) 
TRAIN_0516

>  <Canonical_Smiles>  (87) 
OC(=O)c1cc(ccc1O)N2C(=O)c3ccccc3C2=O

>  <Inhibition>  (87) 
0.436

>  <TDC_conf_true_inhibitor>  (87) 
0

>  <TDC_conf_non_inhibitor>  (87) 
1

>  <split>  (87) 
1

$$$$
87
     RDKit          3D

 44 46  0  0  0  0  0  0  0  0999 V2000
   -4.1293   -1.9327   -3.5378 C   0  0  0  0  0  0  0  0  0  0  0  0
   -2.9689   -1.1145   -3.4544 O   0  0  0  0  0  0  0  0  0  0  0  0
   -2.6561   -0.6126   -2.2205 C   0  0  0  0  0  0  0  0  0  0  0  0
   -3.3608   -0.8389   -1.0396 C   0  0  0  0  0  0  0  0  0  0  0  0
   -2.9338   -0.2698    0.1646 C   0  0  0  0  0  0  0  0  0  0  0  0
   -3.7150   -0.5781    1.2463 O   0  0  0  0  0  0  0  0  0  0  0  0
   -3.3417   -0.0096    2.4958 C   0  0  0  0  0  0  0  0  0  0  0  0
   -1.7921    0.5344    0.1834 C   0  0  0  0  0  0  0  0  0  0  0  0
   -1.0698    0.7824   -0.9975 C   0  0  0  0  0  0  0  0  0  0  0  0
   -1.5160    0.1940   -2.1912 C   0  0  0  0  0  0  0  0  0  0  0  0
    0.1823    1.6449   -1.0142 C   0  0  0  0  0  0  0  0  0  0  0  0
   -0.0485    3.0472   -0.3980 C   0  0  0  0  0  0  0  0  0  0  0  0
    0.7249    3.0251    0.8956 C   0  0  0  0  0  0  0  0  0  0  0  0
    0.6815    3.8637    1.7777 O   0  0  0  0  0  0  0  0  0  0  0  0
    1.5849    1.8514    0.9260 C   0  0  0  0  0  0  0  0  0  0  0  0
    2.5425    1.5160    1.8624 C   0  0  0  0  0  0  0  0  0  0  0  0
    3.2713    0.3447    1.6564 C   0  0  0  0  0  0  0  0  0  0  0  0
    4.2033    0.0850    2.6249 O   0  0  0  0  0  0  0  0  0  0  0  0
    4.9744   -1.1015    2.4868 C   0  0  0  0  0  0  0  0  0  0  0  0
    3.0221   -0.4498    0.5196 C   0  0  0  0  0  0  0  0  0  0  0  0
    2.0358   -0.0902   -0.4129 C   0  0  0  0  0  0  0  0  0  0  0  0
    1.7297   -0.7751   -1.5531 O   0  0  0  0  0  0  0  0  0  0  0  0
    2.2368   -2.0982   -1.6704 C   0  0  0  0  0  0  0  0  0  0  0  0
    1.3120    1.0740   -0.1919 C   0  0  0  0  0  0  0  0  0  0  0  0
   -4.2430   -2.2456   -4.5803 H   0  0  0  0  0  0  0  0  0  0  0  0
   -4.0196   -2.8365   -2.9294 H   0  0  0  0  0  0  0  0  0  0  0  0
   -5.0282   -1.3732   -3.2586 H   0  0  0  0  0  0  0  0  0  0  0  0
   -4.2508   -1.4589   -1.0182 H   0  0  0  0  0  0  0  0  0  0  0  0
   -4.0679   -0.3419    3.2439 H   0  0  0  0  0  0  0  0  0  0  0  0
   -3.3786    1.0842    2.4591 H   0  0  0  0  0  0  0  0  0  0  0  0
   -2.3543   -0.3632    2.8105 H   0  0  0  0  0  0  0  0  0  0  0  0
   -1.4458    0.9745    1.1127 H   0  0  0  0  0  0  0  0  0  0  0  0
   -0.9674    0.3542   -3.1177 H   0  0  0  0  0  0  0  0  0  0  0  0
    0.5249    1.7822   -2.0481 H   0  0  0  0  0  0  0  0  0  0  0  0
    0.3887    3.8232   -1.0366 H   0  0  0  0  0  0  0  0  0  0  0  0
   -1.1021    3.2783   -0.2172 H   0  0  0  0  0  0  0  0  0  0  0  0
    2.7254    2.1501    2.7243 H   0  0  0  0  0  0  0  0  0  0  0  0
    5.6527   -1.1611    3.3434 H   0  0  0  0  0  0  0  0  0  0  0  0
    4.3366   -1.9913    2.5046 H   0  0  0  0  0  0  0  0  0  0  0  0
    5.5861   -1.0702    1.5793 H   0  0  0  0  0  0  0  0  0  0  0  0
    3.6063   -1.3470    0.3565 H   0  0  0  0  0  0  0  0  0  0  0  0
    1.9535   -2.7123   -0.8090 H   0  0  0  0  0  0  0  0  0  0  0  0
    1.7912   -2.5489   -2.5624 H   0  0  0  0  0  0  0  0  0  0  0  0
    3.3227   -2.0885   -1.8089 H   0  0  0  0  0  0  0  0  0  0  0  0
  1  2  1  0
  2  3  1  0
  3  4  2  0
  4  5  1  0
  5  6  1  0
  6  7  1  0
  5  8  2  0
  8  9  1  0
  9 10  2  0
  9 11  1  0
 11 12  1  0
 12 13  1  0
 13 14  2  0
 13 15  1  0
 15 16  2  0
 16 17  1  0
 17 18  1  0
 18 19  1  0
 17 20  2  0
 20 21  1  0
 21 22  1  0
 22 23  1  0
 21 24  2  0
 10  3  1  0
 24 11  1  0
 24 15  1  0
  1 25  1  0
  1 26  1  0
  1 27  1  0
  4 28  1  0
  7 29  1  0
  7 30  1  0
  7 31  1  0
  8 32  1  0
 10 33  1  0
 11 34  1  0
 12 35  1  0
 12 36  1  0
 16 37  1  0
 19 38  1  0
 19 39  1  0
 19 40  1  0
 20 41  1  0
 23 42  1  0
 23 43  1  0
 23 44  1  0
M  END
>  <Unnamed: 0>  (88) 
520

>  <ID>  (88) 
TRAIN_0520

>  <Canonical_Smiles>  (88) 
COc1cc(OC)cc(c1)C2CC(=O)c3cc(OC)cc(OC)c23

>  <Inhibition>  (88) 
52.0

>  <TDC_conf_true_inhibitor>  (88) 
1

>  <TDC_conf_non_inhibitor>  (88) 
0

>  <split>  (88) 
1

$$$$
88
     RDKit          3D

 29 31  0  0  0  0  0  0  0  0999 V2000
    4.6646    0.0626    1.4950 O   0  0  0  0  0  0  0  0  0  0  0  0
    3.4729    0.0732    0.8317 C   0  0  0  0  0  0  0  0  0  0  0  0
    2.7597    1.2662    0.6446 C   0  0  0  0  0  0  0  0  0  0  0  0
    1.5373    1.2576   -0.0383 C   0  0  0  0  0  0  0  0  0  0  0  0
    1.0513    0.0482   -0.5180 C   0  0  0  0  0  0  0  0  0  0  0  0
   -0.2292   -0.2062   -1.2705 C   0  0  0  0  0  0  0  0  0  0  0  0
   -0.1882   -1.7213   -1.5882 C   0  0  0  0  0  0  0  0  0  0  0  0
    1.0694   -2.2271   -0.9271 C   0  0  0  0  0  0  0  0  0  0  0  0
    1.4511   -3.3833   -0.9034 O   0  0  0  0  0  0  0  0  0  0  0  0
    1.7871   -1.1158   -0.3207 C   0  0  0  0  0  0  0  0  0  0  0  0
    2.9955   -1.1391    0.3491 C   0  0  0  0  0  0  0  0  0  0  0  0
   -1.4763    0.2067   -0.5111 C   0  0  0  0  0  0  0  0  0  0  0  0
   -1.7736   -0.3077    0.7642 C   0  0  0  0  0  0  0  0  0  0  0  0
   -2.9264    0.0978    1.4380 C   0  0  0  0  0  0  0  0  0  0  0  0
   -3.1830   -0.4064    2.6526 F   0  0  0  0  0  0  0  0  0  0  0  0
   -3.7977    1.0115    0.8648 C   0  0  0  0  0  0  0  0  0  0  0  0
   -4.9017    1.3970    1.5197 F   0  0  0  0  0  0  0  0  0  0  0  0
   -3.5149    1.5244   -0.3921 C   0  0  0  0  0  0  0  0  0  0  0  0
   -4.3445    2.4098   -0.9610 F   0  0  0  0  0  0  0  0  0  0  0  0
   -2.3671    1.1315   -1.0817 C   0  0  0  0  0  0  0  0  0  0  0  0
    4.8762    0.9656    1.7837 H   0  0  0  0  0  0  0  0  0  0  0  0
    3.1439    2.2086    1.0258 H   0  0  0  0  0  0  0  0  0  0  0  0
    0.9845    2.1821   -0.1810 H   0  0  0  0  0  0  0  0  0  0  0  0
   -0.1783    0.3439   -2.2197 H   0  0  0  0  0  0  0  0  0  0  0  0
   -1.0552   -2.2698   -1.2078 H   0  0  0  0  0  0  0  0  0  0  0  0
   -0.1032   -1.8829   -2.6684 H   0  0  0  0  0  0  0  0  0  0  0  0
    3.5461   -2.0629    0.4895 H   0  0  0  0  0  0  0  0  0  0  0  0
   -1.1167   -1.0236    1.2534 H   0  0  0  0  0  0  0  0  0  0  0  0
   -2.1836    1.5591   -2.0647 H   0  0  0  0  0  0  0  0  0  0  0  0
  1  2  1  0
  2  3  2  0
  3  4  1  0
  4  5  2  0
  5  6  1  0
  6  7  1  0
  7  8  1  0
  8  9  2  0
  8 10  1  0
 10 11  2  0
  6 12  1  0
 12 13  2  0
 13 14  1  0
 14 15  1  0
 14 16  2  0
 16 17  1  0
 16 18  1  0
 18 19  1  0
 18 20  2  0
 11  2  1  0
 10  5  1  0
 20 12  1  0
  1 21  1  0
  3 22  1  0
  4 23  1  0
  6 24  1  0
  7 25  1  0
  7 26  1  0
 11 27  1  0
 13 28  1  0
 20 29  1  0
M  END
>  <Unnamed: 0>  (89) 
571

>  <ID>  (89) 
TRAIN_0571

>  <Canonical_Smiles>  (89) 
Oc1ccc2C(CC(=O)c2c1)c3cc(F)c(F)c(F)c3

>  <Inhibition>  (89) 
19.5

>  <TDC_conf_true_inhibitor>  (89) 
0

>  <TDC_conf_non_inhibitor>  (89) 
1

>  <split>  (89) 
1

$$$$
89
     RDKit          3D

 14 15  0  0  0  0  0  0  0  0999 V2000
   -0.7181    2.7622    1.4191 Cl  0  0  0  0  0  0  0  0  0  0  0  0
   -0.8001    1.2541    0.6133 C   0  0  0  0  0  0  0  0  0  0  0  0
   -2.0219    0.7018    0.2401 C   0  0  0  0  0  0  0  0  0  0  0  0
   -2.0333   -0.5254   -0.4120 C   0  0  0  0  0  0  0  0  0  0  0  0
   -0.9430   -1.2614   -0.7313 N   0  0  0  0  0  0  0  0  0  0  0  0
    0.2370   -0.7066   -0.3595 C   0  0  0  0  0  0  0  0  0  0  0  0
    1.5586   -1.1751   -0.5217 C   0  0  0  0  0  0  0  0  0  0  0  0
    2.3741   -0.2167    0.0404 C   0  0  0  0  0  0  0  0  0  0  0  0
    4.4486   -0.3065    0.1286 I   0  0  0  0  0  0  0  0  0  0  0  0
    1.6359    0.8149    0.5396 O   0  0  0  0  0  0  0  0  0  0  0  0
    0.3298    0.5143    0.2946 C   0  0  0  0  0  0  0  0  0  0  0  0
   -2.9540    1.2153    0.4516 H   0  0  0  0  0  0  0  0  0  0  0  0
   -2.9794   -0.9730   -0.7116 H   0  0  0  0  0  0  0  0  0  0  0  0
    1.8657   -2.0976   -0.9912 H   0  0  0  0  0  0  0  0  0  0  0  0
  1  2  1  0
  2  3  2  0
  3  4  1  0
  4  5  2  0
  5  6  1  0
  6  7  1  0
  7  8  2  0
  8  9  1  0
  8 10  1  0
 10 11  1  0
 11  2  1  0
 11  6  2  0
  3 12  1  0
  4 13  1  0
  7 14  1  0
M  END
>  <Unnamed: 0>  (90) 
544

>  <ID>  (90) 
TRAIN_0544

>  <Canonical_Smiles>  (90) 
Clc1ccnc2cc(I)oc12

>  <Inhibition>  (90) 
10.4

>  <TDC_conf_true_inhibitor>  (90) 
0

>  <TDC_conf_non_inhibitor>  (90) 
1

>  <split>  (90) 
1

$$$$
90
     RDKit          3D

 43 46  0  0  0  0  0  0  0  0999 V2000
    5.9766    0.2902   -1.0216 C   0  0  0  0  0  0  0  0  0  0  0  0
    4.6417    0.8639   -1.4884 C   0  0  0  0  0  0  0  0  0  0  0  0
    3.9786    0.0078   -2.5645 C   0  0  0  0  0  0  0  0  0  0  0  0
    3.7450    1.1692   -0.3789 N   0  0  0  0  0  0  0  0  0  0  0  0
    3.0992    0.1724    0.3254 C   0  0  0  0  0  0  0  0  0  0  0  0
    3.6689   -1.0286    0.4843 N   0  0  0  0  0  0  0  0  0  0  0  0
    3.0252   -1.9811    1.1883 C   0  0  0  0  0  0  0  0  0  0  0  0
    1.7859   -1.6990    1.7282 C   0  0  0  0  0  0  0  0  0  0  0  0
    0.7375   -2.6827    2.6540 S   0  0  0  0  0  0  0  0  0  0  0  0
   -0.4224   -1.4364    2.7795 C   0  0  0  0  0  0  0  0  0  0  0  0
   -0.0363   -0.2783    2.1283 C   0  0  0  0  0  0  0  0  0  0  0  0
   -0.8459    0.9817    2.0682 C   0  0  0  0  0  0  0  0  0  0  0  0
   -2.2400    0.7444    1.8352 O   0  0  0  0  0  0  0  0  0  0  0  0
   -2.6769    0.5150    0.5525 C   0  0  0  0  0  0  0  0  0  0  0  0
   -1.8500    0.4797   -0.5723 C   0  0  0  0  0  0  0  0  0  0  0  0
   -2.3948    0.2317   -1.8290 C   0  0  0  0  0  0  0  0  0  0  0  0
   -3.7662    0.0193   -1.9649 C   0  0  0  0  0  0  0  0  0  0  0  0
   -4.6187    0.0465   -0.8731 C   0  0  0  0  0  0  0  0  0  0  0  0
   -5.9308   -0.1678   -1.0801 N   0  0  0  0  0  0  0  0  0  0  0  0
   -6.7564   -0.1409   -0.0123 C   0  0  0  0  0  0  0  0  0  0  0  0
   -6.3331    0.0937    1.2793 C   0  0  0  0  0  0  0  0  0  0  0  0
   -4.9769    0.3145    1.4867 C   0  0  0  0  0  0  0  0  0  0  0  0
   -4.0729    0.2970    0.4054 C   0  0  0  0  0  0  0  0  0  0  0  0
    1.2532   -0.4343    1.5198 C   0  0  0  0  0  0  0  0  0  0  0  0
    1.9045    0.5191    0.8100 N   0  0  0  0  0  0  0  0  0  0  0  0
    6.4011    0.8940   -0.2123 H   0  0  0  0  0  0  0  0  0  0  0  0
    5.8887   -0.7391   -0.6627 H   0  0  0  0  0  0  0  0  0  0  0  0
    6.6959    0.2823   -1.8479 H   0  0  0  0  0  0  0  0  0  0  0  0
    4.8727    1.8307   -1.9546 H   0  0  0  0  0  0  0  0  0  0  0  0
    3.7774   -1.0106   -2.2173 H   0  0  0  0  0  0  0  0  0  0  0  0
    3.0263    0.4472   -2.8811 H   0  0  0  0  0  0  0  0  0  0  0  0
    4.6244   -0.0671   -3.4460 H   0  0  0  0  0  0  0  0  0  0  0  0
    3.0498    1.8800   -0.5765 H   0  0  0  0  0  0  0  0  0  0  0  0
    3.5216   -2.9371    1.2973 H   0  0  0  0  0  0  0  0  0  0  0  0
   -1.3445   -1.6090    3.3197 H   0  0  0  0  0  0  0  0  0  0  0  0
   -0.4501    1.7210    1.3624 H   0  0  0  0  0  0  0  0  0  0  0  0
   -0.7818    1.4606    3.0534 H   0  0  0  0  0  0  0  0  0  0  0  0
   -0.7782    0.6354   -0.5138 H   0  0  0  0  0  0  0  0  0  0  0  0
   -1.7532    0.2011   -2.7060 H   0  0  0  0  0  0  0  0  0  0  0  0
   -4.1830   -0.1743   -2.9506 H   0  0  0  0  0  0  0  0  0  0  0  0
   -7.8044   -0.3197   -0.2349 H   0  0  0  0  0  0  0  0  0  0  0  0
   -7.0365    0.1055    2.1036 H   0  0  0  0  0  0  0  0  0  0  0  0
   -4.6213    0.5023    2.4970 H   0  0  0  0  0  0  0  0  0  0  0  0
  1  2  1  0
  2  3  1  0
  2  4  1  0
  4  5  1  0
  5  6  2  0
  6  7  1  0
  7  8  2  0
  8  9  1  0
  9 10  1  0
 10 11  2  0
 11 12  1  0
 12 13  1  0
 13 14  1  0
 14 15  2  0
 15 16  1  0
 16 17  2  0
 17 18  1  0
 18 19  2  0
 19 20  1  0
 20 21  2  0
 21 22  1  0
 22 23  2  0
 11 24  1  0
 24 25  2  0
 25  5  1  0
 24  8  1  0
 23 14  1  0
 23 18  1  0
  1 26  1  0
  1 27  1  0
  1 28  1  0
  2 29  1  0
  3 30  1  0
  3 31  1  0
  3 32  1  0
  4 33  1  0
  7 34  1  0
 10 35  1  0
 12 36  1  0
 12 37  1  0
 15 38  1  0
 16 39  1  0
 17 40  1  0
 20 41  1  0
 21 42  1  0
 22 43  1  0
M  END
>  <Unnamed: 0>  (91) 
550

>  <ID>  (91) 
TRAIN_0550

>  <Canonical_Smiles>  (91) 
CC(C)Nc1ncc2scc(COc3cccc4ncccc34)c2n1

>  <Inhibition>  (91) 
66.5

>  <TDC_conf_true_inhibitor>  (91) 
1

>  <TDC_conf_non_inhibitor>  (91) 
0

>  <split>  (91) 
1

$$$$
91
     RDKit          3D

 34 36  0  0  0  0  0  0  0  0999 V2000
    3.8961   -1.2822   -1.1596 O   0  0  0  0  0  0  0  0  0  0  0  0
    5.1359   -0.6127   -0.9930 C   0  0  0  0  0  0  0  0  0  0  0  0
    5.2112    0.1677    0.3177 C   0  0  0  0  0  0  0  0  0  0  0  0
    4.1766    1.2922    0.4318 C   0  0  0  0  0  0  0  0  0  0  0  0
    2.7821    0.8153    0.6157 C   0  0  0  0  0  0  0  0  0  0  0  0
    1.6352    1.1872   -0.0427 C   0  0  0  0  0  0  0  0  0  0  0  0
    0.6069    0.4098    0.4762 N   0  0  0  0  0  0  0  0  0  0  0  0
    1.1780   -0.3932    1.4393 N   0  0  0  0  0  0  0  0  0  0  0  0
    2.4736   -0.1429    1.5282 N   0  0  0  0  0  0  0  0  0  0  0  0
   -0.7634    0.3916    0.1277 C   0  0  0  0  0  0  0  0  0  0  0  0
   -1.5998   -0.4808    0.7307 C   0  0  0  0  0  0  0  0  0  0  0  0
   -3.0143   -0.5610    0.4132 C   0  0  0  0  0  0  0  0  0  0  0  0
   -3.8745   -1.4632    1.0423 C   0  0  0  0  0  0  0  0  0  0  0  0
   -5.2269   -1.4976    0.6889 C   0  0  0  0  0  0  0  0  0  0  0  0
   -5.7124   -0.6334   -0.2894 C   0  0  0  0  0  0  0  0  0  0  0  0
   -7.0380   -0.7072   -0.5975 O   0  0  0  0  0  0  0  0  0  0  0  0
   -4.8688    0.2695   -0.9243 C   0  0  0  0  0  0  0  0  0  0  0  0
   -3.5251    0.2881   -0.5571 C   0  0  0  0  0  0  0  0  0  0  0  0
   -2.6835    1.2066   -1.2013 O   0  0  0  0  0  0  0  0  0  0  0  0
   -1.3280    1.3207   -0.8946 C   0  0  0  0  0  0  0  0  0  0  0  0
   -0.6594    2.1758   -1.4640 O   0  0  0  0  0  0  0  0  0  0  0  0
    3.6350   -1.6574   -0.2979 H   0  0  0  0  0  0  0  0  0  0  0  0
    5.9300   -1.3657   -1.0218 H   0  0  0  0  0  0  0  0  0  0  0  0
    5.2786    0.0545   -1.8490 H   0  0  0  0  0  0  0  0  0  0  0  0
    6.2123    0.6088    0.3950 H   0  0  0  0  0  0  0  0  0  0  0  0
    5.0997   -0.5252    1.1607 H   0  0  0  0  0  0  0  0  0  0  0  0
    4.4340    1.9151    1.2975 H   0  0  0  0  0  0  0  0  0  0  0  0
    4.2403    1.9410   -0.4502 H   0  0  0  0  0  0  0  0  0  0  0  0
    1.4830    1.9044   -0.8333 H   0  0  0  0  0  0  0  0  0  0  0  0
   -1.2360   -1.1757    1.4852 H   0  0  0  0  0  0  0  0  0  0  0  0
   -3.5094   -2.1450    1.8067 H   0  0  0  0  0  0  0  0  0  0  0  0
   -5.9010   -2.1981    1.1754 H   0  0  0  0  0  0  0  0  0  0  0  0
   -7.2378   -0.0568   -1.2914 H   0  0  0  0  0  0  0  0  0  0  0  0
   -5.2301    0.9498   -1.6873 H   0  0  0  0  0  0  0  0  0  0  0  0
  1  2  1  0
  2  3  1  0
  3  4  1  0
  4  5  1  0
  5  6  2  0
  6  7  1  0
  7  8  1  0
  8  9  2  0
  7 10  1  0
 10 11  2  0
 11 12  1  0
 12 13  2  0
 13 14  1  0
 14 15  2  0
 15 16  1  0
 15 17  1  0
 17 18  2  0
 18 19  1  0
 19 20  1  0
 20 21  2  0
  9  5  1  0
 20 10  1  0
 18 12  1  0
  1 22  1  0
  2 23  1  0
  2 24  1  0
  3 25  1  0
  3 26  1  0
  4 27  1  0
  4 28  1  0
  6 29  1  0
 11 30  1  0
 13 31  1  0
 14 32  1  0
 16 33  1  0
 17 34  1  0
M  END
>  <Unnamed: 0>  (92) 
561

>  <ID>  (92) 
TRAIN_0561

>  <Canonical_Smiles>  (92) 
OCCCc1cn(nn1)C2=Cc3ccc(O)cc3OC2=O

>  <Inhibition>  (92) 
29.7

>  <TDC_conf_true_inhibitor>  (92) 
0

>  <TDC_conf_non_inhibitor>  (92) 
1

>  <split>  (92) 
1

$$$$
92
     RDKit          3D

 46 47  0  0  0  0  0  0  0  0999 V2000
   -4.6473    2.4283   -2.6360 C   0  0  0  0  0  0  0  0  0  0  0  0
   -4.7843    2.2177   -1.2335 O   0  0  0  0  0  0  0  0  0  0  0  0
   -3.7191    1.5316   -0.6814 C   0  0  0  0  0  0  0  0  0  0  0  0
   -3.7640    1.3359    0.6741 C   0  0  0  0  0  0  0  0  0  0  0  0
   -2.7000    0.6475    1.1976 C   0  0  0  0  0  0  0  0  0  0  0  0
   -2.7333    0.4329    2.5629 O   0  0  0  0  0  0  0  0  0  0  0  0
   -1.5623   -0.2009    3.0636 C   0  0  0  0  0  0  0  0  0  0  0  0
   -1.6739    0.1772    0.4682 N   0  0  0  0  0  0  0  0  0  0  0  0
   -1.7331    0.4472   -0.8446 C   0  0  0  0  0  0  0  0  0  0  0  0
   -0.7435   -0.0108   -1.6844 O   0  0  0  0  0  0  0  0  0  0  0  0
    0.3879   -0.5617   -1.0146 C   0  0  0  0  0  0  0  0  0  0  0  0
    1.2992   -1.2294   -2.0815 C   0  0  0  0  0  0  0  0  0  0  0  0
    1.6518   -0.2844   -3.2370 C   0  0  0  0  0  0  0  0  0  0  0  0
    0.6279   -2.4864   -2.6458 C   0  0  0  0  0  0  0  0  0  0  0  0
    1.2137    0.4864   -0.2215 C   0  0  0  0  0  0  0  0  0  0  0  0
    1.1900    1.6791   -0.5371 O   0  0  0  0  0  0  0  0  0  0  0  0
    2.0006    0.0368    0.8338 N   0  0  0  0  0  0  0  0  0  0  0  0
    2.7703    1.0117    1.6129 C   0  0  0  0  0  0  0  0  0  0  0  0
    2.7714    0.6491    3.1013 C   0  0  0  0  0  0  0  0  0  0  0  0
    3.2726   -0.6658    3.3863 O   0  0  0  0  0  0  0  0  0  0  0  0
    3.2186   -1.5668    2.2743 C   0  0  0  0  0  0  0  0  0  0  0  0
    2.0085   -1.3291    1.3663 C   0  0  0  0  0  0  0  0  0  0  0  0
   -2.7254    1.0920   -1.4672 N   0  0  0  0  0  0  0  0  0  0  0  0
   -3.7589    3.0281   -2.8628 H   0  0  0  0  0  0  0  0  0  0  0  0
   -4.6307    1.4774   -3.1798 H   0  0  0  0  0  0  0  0  0  0  0  0
   -5.5231    2.9899   -2.9751 H   0  0  0  0  0  0  0  0  0  0  0  0
   -4.5776    1.6983    1.2842 H   0  0  0  0  0  0  0  0  0  0  0  0
   -1.6706   -0.2955    4.1483 H   0  0  0  0  0  0  0  0  0  0  0  0
   -1.4508   -1.2092    2.6503 H   0  0  0  0  0  0  0  0  0  0  0  0
   -0.6712    0.4050    2.8691 H   0  0  0  0  0  0  0  0  0  0  0  0
    0.0440   -1.3467   -0.3296 H   0  0  0  0  0  0  0  0  0  0  0  0
    2.2422   -1.5385   -1.6155 H   0  0  0  0  0  0  0  0  0  0  0  0
    2.3194   -0.7826   -3.9486 H   0  0  0  0  0  0  0  0  0  0  0  0
    0.7613    0.0362   -3.7877 H   0  0  0  0  0  0  0  0  0  0  0  0
    2.1696    0.6088   -2.8747 H   0  0  0  0  0  0  0  0  0  0  0  0
    0.4044   -3.1993   -1.8451 H   0  0  0  0  0  0  0  0  0  0  0  0
    1.2863   -2.9887   -3.3626 H   0  0  0  0  0  0  0  0  0  0  0  0
   -0.3091   -2.2472   -3.1598 H   0  0  0  0  0  0  0  0  0  0  0  0
    2.3805    2.0247    1.4745 H   0  0  0  0  0  0  0  0  0  0  0  0
    3.7928    0.9842    1.2187 H   0  0  0  0  0  0  0  0  0  0  0  0
    3.3800    1.3630    3.6652 H   0  0  0  0  0  0  0  0  0  0  0  0
    1.7527    0.7005    3.5017 H   0  0  0  0  0  0  0  0  0  0  0  0
    4.1510   -1.4584    1.7080 H   0  0  0  0  0  0  0  0  0  0  0  0
    3.1959   -2.5849    2.6754 H   0  0  0  0  0  0  0  0  0  0  0  0
    2.0041   -2.0555    0.5512 H   0  0  0  0  0  0  0  0  0  0  0  0
    1.0816   -1.4477    1.9381 H   0  0  0  0  0  0  0  0  0  0  0  0
  1  2  1  0
  2  3  1  0
  3  4  2  0
  4  5  1  0
  5  6  1  0
  6  7  1  0
  5  8  2  0
  8  9  1  0
  9 10  1  0
 10 11  1  0
 11 12  1  0
 12 13  1  0
 12 14  1  0
 11 15  1  0
 15 16  2  0
 15 17  1  0
 17 18  1  0
 18 19  1  0
 19 20  1  0
 20 21  1  0
 21 22  1  0
  9 23  2  0
 23  3  1  0
 22 17  1  0
  1 24  1  0
  1 25  1  0
  1 26  1  0
  4 27  1  0
  7 28  1  0
  7 29  1  0
  7 30  1  0
 11 31  1  0
 12 32  1  0
 13 33  1  0
 13 34  1  0
 13 35  1  0
 14 36  1  0
 14 37  1  0
 14 38  1  0
 18 39  1  0
 18 40  1  0
 19 41  1  0
 19 42  1  0
 21 43  1  0
 21 44  1  0
 22 45  1  0
 22 46  1  0
M  END
>  <Unnamed: 0>  (93) 
567

>  <ID>  (93) 
TRAIN_0567

>  <Canonical_Smiles>  (93) 
COc1cc(OC)nc(OC(C(C)C)C(=O)N2CCOCC2)n1

>  <Inhibition>  (93) 
0.0

>  <TDC_conf_true_inhibitor>  (93) 
0

>  <TDC_conf_non_inhibitor>  (93) 
1

>  <split>  (93) 
1

$$$$
93
     RDKit          3D

 55 59  0  0  0  0  0  0  0  0999 V2000
   -1.3124    4.9730   -0.6045 C   0  0  0  0  0  0  0  0  0  0  0  0
   -1.2645    3.5009   -0.9231 C   0  0  0  0  0  0  0  0  0  0  0  0
   -2.2516    2.9363   -1.4045 O   0  0  0  0  0  0  0  0  0  0  0  0
   -0.0151    2.7370   -0.6155 C   0  0  0  0  0  0  0  0  0  0  0  0
   -0.0837    1.4358   -0.2268 C   0  0  0  0  0  0  0  0  0  0  0  0
   -1.2947    0.7590   -0.1058 N   0  0  0  0  0  0  0  0  0  0  0  0
   -1.4998   -0.6731   -0.3407 C   0  0  0  0  0  0  0  0  0  0  0  0
   -1.3545   -0.9630   -1.8435 C   0  0  0  0  0  0  0  0  0  0  0  0
   -1.8449   -2.3653   -2.1743 C   0  0  0  0  0  0  0  0  0  0  0  0
   -3.3342   -2.4855   -1.8684 C   0  0  0  0  0  0  0  0  0  0  0  0
   -3.6929   -1.9821   -0.4922 C   0  0  0  0  0  0  0  0  0  0  0  0
   -4.9212   -2.3696    0.0676 C   0  0  0  0  0  0  0  0  0  0  0  0
   -5.3038   -1.9174    1.3295 C   0  0  0  0  0  0  0  0  0  0  0  0
   -4.4656   -1.0701    2.0457 C   0  0  0  0  0  0  0  0  0  0  0  0
   -3.2485   -0.6685    1.4957 C   0  0  0  0  0  0  0  0  0  0  0  0
   -2.8524   -1.0990    0.2154 C   0  0  0  0  0  0  0  0  0  0  0  0
    1.0659    0.7429    0.0892 N   0  0  0  0  0  0  0  0  0  0  0  0
    2.3450    1.3192    0.1511 C   0  0  0  0  0  0  0  0  0  0  0  0
    2.5138    2.6413   -0.2747 C   0  0  0  0  0  0  0  0  0  0  0  0
    3.7752    3.2461   -0.2813 C   0  0  0  0  0  0  0  0  0  0  0  0
    4.8884    2.5200    0.1299 C   0  0  0  0  0  0  0  0  0  0  0  0
    4.7400    1.1925    0.5351 C   0  0  0  0  0  0  0  0  0  0  0  0
    3.4778    0.5682    0.5406 C   0  0  0  0  0  0  0  0  0  0  0  0
    3.3738   -0.8426    0.9467 C   0  0  0  0  0  0  0  0  0  0  0  0
    3.0771   -1.8414    0.0049 C   0  0  0  0  0  0  0  0  0  0  0  0
    2.9592   -3.1777    0.3922 C   0  0  0  0  0  0  0  0  0  0  0  0
    3.1390   -3.5341    1.7268 C   0  0  0  0  0  0  0  0  0  0  0  0
    3.4381   -2.5566    2.6736 C   0  0  0  0  0  0  0  0  0  0  0  0
    3.5557   -1.2198    2.2861 C   0  0  0  0  0  0  0  0  0  0  0  0
    1.3198    3.3974   -0.7080 C   0  0  0  0  0  0  0  0  0  0  0  0
    1.4471    4.5423   -1.1330 O   0  0  0  0  0  0  0  0  0  0  0  0
   -2.3416    5.2491   -0.3546 H   0  0  0  0  0  0  0  0  0  0  0  0
   -0.6945    5.2057    0.2668 H   0  0  0  0  0  0  0  0  0  0  0  0
   -0.9864    5.5514   -1.4721 H   0  0  0  0  0  0  0  0  0  0  0  0
   -2.0723    1.2981   -0.5130 H   0  0  0  0  0  0  0  0  0  0  0  0
   -0.7527   -1.2625    0.2063 H   0  0  0  0  0  0  0  0  0  0  0  0
   -1.9211   -0.2311   -2.4352 H   0  0  0  0  0  0  0  0  0  0  0  0
   -0.3048   -0.8593   -2.1440 H   0  0  0  0  0  0  0  0  0  0  0  0
   -1.6679   -2.5869   -3.2327 H   0  0  0  0  0  0  0  0  0  0  0  0
   -1.2783   -3.1022   -1.5911 H   0  0  0  0  0  0  0  0  0  0  0  0
   -3.9075   -1.9075   -2.6040 H   0  0  0  0  0  0  0  0  0  0  0  0
   -3.6289   -3.5368   -1.9703 H   0  0  0  0  0  0  0  0  0  0  0  0
   -5.5884   -3.0307   -0.4817 H   0  0  0  0  0  0  0  0  0  0  0  0
   -6.2558   -2.2263    1.7524 H   0  0  0  0  0  0  0  0  0  0  0  0
   -4.7584   -0.7177    3.0309 H   0  0  0  0  0  0  0  0  0  0  0  0
   -2.6028   -0.0056    2.0691 H   0  0  0  0  0  0  0  0  0  0  0  0
    0.9222   -0.0798    0.6634 H   0  0  0  0  0  0  0  0  0  0  0  0
    3.8902    4.2774   -0.6081 H   0  0  0  0  0  0  0  0  0  0  0  0
    5.8729    2.9819    0.1256 H   0  0  0  0  0  0  0  0  0  0  0  0
    5.6238    0.6311    0.8357 H   0  0  0  0  0  0  0  0  0  0  0  0
    2.9357   -1.5780   -1.0420 H   0  0  0  0  0  0  0  0  0  0  0  0
    2.7298   -3.9396   -0.3483 H   0  0  0  0  0  0  0  0  0  0  0  0
    3.0483   -4.5744    2.0291 H   0  0  0  0  0  0  0  0  0  0  0  0
    3.5790   -2.8341    3.7152 H   0  0  0  0  0  0  0  0  0  0  0  0
    3.7832   -0.4685    3.0398 H   0  0  0  0  0  0  0  0  0  0  0  0
  1  2  1  0
  2  3  2  0
  2  4  1  0
  4  5  2  0
  5  6  1  0
  6  7  1  0
  7  8  1  0
  8  9  1  0
  9 10  1  0
 10 11  1  0
 11 12  2  0
 12 13  1  0
 13 14  2  0
 14 15  1  0
 15 16  2  0
  5 17  1  0
 17 18  1  0
 18 19  2  0
 19 20  1  0
 20 21  2  0
 21 22  1  0
 22 23  2  0
 23 24  1  0
 24 25  2  0
 25 26  1  0
 26 27  2  0
 27 28  1  0
 28 29  2  0
 19 30  1  0
 30 31  2  0
 30  4  1  0
 16  7  1  0
 16 11  1  0
 23 18  1  0
 29 24  1  0
  1 32  1  0
  1 33  1  0
  1 34  1  0
  6 35  1  0
  7 36  1  0
  8 37  1  0
  8 38  1  0
  9 39  1  0
  9 40  1  0
 10 41  1  0
 10 42  1  0
 12 43  1  0
 13 44  1  0
 14 45  1  0
 15 46  1  0
 17 47  1  0
 20 48  1  0
 21 49  1  0
 22 50  1  0
 25 51  1  0
 26 52  1  0
 27 53  1  0
 28 54  1  0
 29 55  1  0
M  END
>  <Unnamed: 0>  (94) 
570

>  <ID>  (94) 
TRAIN_0570

>  <Canonical_Smiles>  (94) 
CC(=O)C1=C(NC2CCCc3ccccc23)Nc4c(cccc4c5ccccc5)C1=O

>  <Inhibition>  (94) 
33.3

>  <TDC_conf_true_inhibitor>  (94) 
1

>  <TDC_conf_non_inhibitor>  (94) 
0

>  <split>  (94) 
1

$$$$
94
     RDKit          3D

 33 34  0  0  0  0  0  0  0  0999 V2000
   -4.9071   -0.6919    1.3305 C   0  0  0  0  0  0  0  0  0  0  0  0
   -3.7642    0.0554    0.7014 C   0  0  0  0  0  0  0  0  0  0  0  0
   -3.9590    1.3869    0.5320 N   0  0  0  0  0  0  0  0  0  0  0  0
   -2.9650    2.0974   -0.0212 C   0  0  0  0  0  0  0  0  0  0  0  0
   -3.2232    3.4278   -0.1595 O   0  0  0  0  0  0  0  0  0  0  0  0
   -1.7607    1.5551   -0.4287 C   0  0  0  0  0  0  0  0  0  0  0  0
   -1.5509    0.1784   -0.2666 C   0  0  0  0  0  0  0  0  0  0  0  0
   -0.2455   -0.4708   -0.6812 C   0  0  0  0  0  0  0  0  0  0  0  0
    0.5814    0.4500   -1.3950 O   0  0  0  0  0  0  0  0  0  0  0  0
    1.8281   -0.1294   -1.7874 C   0  0  0  0  0  0  0  0  0  0  0  0
    2.8017   -0.1924   -0.6373 C   0  0  0  0  0  0  0  0  0  0  0  0
    3.0667    0.9494    0.1328 C   0  0  0  0  0  0  0  0  0  0  0  0
    3.9729    0.8954    1.1925 C   0  0  0  0  0  0  0  0  0  0  0  0
    4.6270   -0.2984    1.4898 C   0  0  0  0  0  0  0  0  0  0  0  0
    4.3772   -1.4379    0.7271 C   0  0  0  0  0  0  0  0  0  0  0  0
    3.4709   -1.3859   -0.3336 C   0  0  0  0  0  0  0  0  0  0  0  0
   -2.5799   -0.5865    0.3199 C   0  0  0  0  0  0  0  0  0  0  0  0
   -2.4213   -1.9966    0.5254 C   0  0  0  0  0  0  0  0  0  0  0  0
   -2.2702   -3.1370    0.6776 N   0  0  0  0  0  0  0  0  0  0  0  0
   -4.5915   -1.1525    2.2719 H   0  0  0  0  0  0  0  0  0  0  0  0
   -5.2798   -1.4646    0.6508 H   0  0  0  0  0  0  0  0  0  0  0  0
   -5.7381   -0.0139    1.5527 H   0  0  0  0  0  0  0  0  0  0  0  0
   -2.4534    3.8421   -0.5750 H   0  0  0  0  0  0  0  0  0  0  0  0
   -0.9920    2.1833   -0.8657 H   0  0  0  0  0  0  0  0  0  0  0  0
    0.2742   -0.8142    0.2204 H   0  0  0  0  0  0  0  0  0  0  0  0
   -0.4587   -1.3224   -1.3376 H   0  0  0  0  0  0  0  0  0  0  0  0
    1.6597   -1.1142   -2.2395 H   0  0  0  0  0  0  0  0  0  0  0  0
    2.2578    0.5108   -2.5662 H   0  0  0  0  0  0  0  0  0  0  0  0
    2.5604    1.8863   -0.0906 H   0  0  0  0  0  0  0  0  0  0  0  0
    4.1685    1.7848    1.7860 H   0  0  0  0  0  0  0  0  0  0  0  0
    5.3327   -0.3407    2.3153 H   0  0  0  0  0  0  0  0  0  0  0  0
    4.8898   -2.3682    0.9586 H   0  0  0  0  0  0  0  0  0  0  0  0
    3.2915   -2.2856   -0.9181 H   0  0  0  0  0  0  0  0  0  0  0  0
  1  2  1  0
  2  3  2  0
  3  4  1  0
  4  5  1  0
  4  6  2  0
  6  7  1  0
  7  8  1  0
  8  9  1  0
  9 10  1  0
 10 11  1  0
 11 12  2  0
 12 13  1  0
 13 14  2  0
 14 15  1  0
 15 16  2  0
  7 17  2  0
 17 18  1  0
 18 19  3  0
 17  2  1  0
 16 11  1  0
  1 20  1  0
  1 21  1  0
  1 22  1  0
  5 23  1  0
  6 24  1  0
  8 25  1  0
  8 26  1  0
 10 27  1  0
 10 28  1  0
 12 29  1  0
 13 30  1  0
 14 31  1  0
 15 32  1  0
 16 33  1  0
M  END
>  <Unnamed: 0>  (95) 
581

>  <ID>  (95) 
TRAIN_0581

>  <Canonical_Smiles>  (95) 
Cc1nc(O)cc(COCc2ccccc2)c1C#N

>  <Inhibition>  (95) 
0.332

>  <TDC_conf_true_inhibitor>  (95) 
0

>  <TDC_conf_non_inhibitor>  (95) 
1

>  <split>  (95) 
1

$$$$
95
     RDKit          3D

 34 35  0  0  0  0  0  0  0  0999 V2000
    5.5357   -1.7084   -1.2728 C   0  0  0  0  0  0  0  0  0  0  0  0
    4.6931   -1.4403   -0.1592 O   0  0  0  0  0  0  0  0  0  0  0  0
    3.7240   -0.4908   -0.3310 C   0  0  0  0  0  0  0  0  0  0  0  0
    2.9342   -0.2532    0.7982 C   0  0  0  0  0  0  0  0  0  0  0  0
    1.9052    0.6904    0.7640 C   0  0  0  0  0  0  0  0  0  0  0  0
    1.6525    1.3914   -0.4154 C   0  0  0  0  0  0  0  0  0  0  0  0
    0.6724    2.3518   -0.5191 O   0  0  0  0  0  0  0  0  0  0  0  0
   -0.5624    2.0216    0.0025 C   0  0  0  0  0  0  0  0  0  0  0  0
   -1.2732    0.9518   -0.4984 C   0  0  0  0  0  0  0  0  0  0  0  0
   -2.5128    0.7193    0.0595 C   0  0  0  0  0  0  0  0  0  0  0  0
   -3.2731   -0.3479   -0.4448 N   0  0  0  0  0  0  0  0  0  0  0  0
   -4.5346   -0.6285    0.2503 C   0  0  0  0  0  0  0  0  0  0  0  0
   -4.2909   -1.3882    1.5602 C   0  0  0  0  0  0  0  0  0  0  0  0
   -3.5697   -2.5948    1.2902 O   0  0  0  0  0  0  0  0  0  0  0  0
   -3.0123    1.5228    1.0134 N   0  0  0  0  0  0  0  0  0  0  0  0
   -2.2455    2.5519    1.4060 C   0  0  0  0  0  0  0  0  0  0  0  0
   -1.0271    2.8505    0.9494 N   0  0  0  0  0  0  0  0  0  0  0  0
    2.4509    1.1781   -1.5388 C   0  0  0  0  0  0  0  0  0  0  0  0
    3.4810    0.2325   -1.5001 C   0  0  0  0  0  0  0  0  0  0  0  0
    4.9598   -2.0982   -2.1187 H   0  0  0  0  0  0  0  0  0  0  0  0
    6.1071   -0.8191   -1.5589 H   0  0  0  0  0  0  0  0  0  0  0  0
    6.2505   -2.4807   -0.9729 H   0  0  0  0  0  0  0  0  0  0  0  0
    3.1294   -0.8027    1.7160 H   0  0  0  0  0  0  0  0  0  0  0  0
    1.3219    0.8778    1.6614 H   0  0  0  0  0  0  0  0  0  0  0  0
   -0.8840    0.3341   -1.2954 H   0  0  0  0  0  0  0  0  0  0  0  0
   -2.7069   -1.1977   -0.4557 H   0  0  0  0  0  0  0  0  0  0  0  0
   -5.1223   -1.2706   -0.4163 H   0  0  0  0  0  0  0  0  0  0  0  0
   -5.1263    0.2788    0.4172 H   0  0  0  0  0  0  0  0  0  0  0  0
   -3.7084   -0.7950    2.2711 H   0  0  0  0  0  0  0  0  0  0  0  0
   -5.2462   -1.6548    2.0228 H   0  0  0  0  0  0  0  0  0  0  0  0
   -3.4115   -3.0208    2.1507 H   0  0  0  0  0  0  0  0  0  0  0  0
   -2.6569    3.2039    2.1687 H   0  0  0  0  0  0  0  0  0  0  0  0
    2.2710    1.7456   -2.4483 H   0  0  0  0  0  0  0  0  0  0  0  0
    4.0753    0.0896   -2.3963 H   0  0  0  0  0  0  0  0  0  0  0  0
  1  2  1  0
  2  3  1  0
  3  4  2  0
  4  5  1  0
  5  6  2  0
  6  7  1  0
  7  8  1  0
  8  9  2  0
  9 10  1  0
 10 11  1  0
 11 12  1  0
 12 13  1  0
 13 14  1  0
 10 15  2  0
 15 16  1  0
 16 17  2  0
  6 18  1  0
 18 19  2  0
 19  3  1  0
 17  8  1  0
  1 20  1  0
  1 21  1  0
  1 22  1  0
  4 23  1  0
  5 24  1  0
  9 25  1  0
 11 26  1  0
 12 27  1  0
 12 28  1  0
 13 29  1  0
 13 30  1  0
 14 31  1  0
 16 32  1  0
 18 33  1  0
 19 34  1  0
M  END
>  <Unnamed: 0>  (96) 
582

>  <ID>  (96) 
TRAIN_0582

>  <Canonical_Smiles>  (96) 
COc1ccc(Oc2cc(NCCO)ncn2)cc1

>  <Inhibition>  (96) 
0.0

>  <TDC_conf_true_inhibitor>  (96) 
0

>  <TDC_conf_non_inhibitor>  (96) 
1

>  <split>  (96) 
1

$$$$
96
     RDKit          3D

 27 29  0  0  0  0  0  0  0  0999 V2000
   -5.1443    0.0679    0.4577 C   0  0  0  0  0  0  0  0  0  0  0  0
   -4.0405    0.5671   -0.2881 O   0  0  0  0  0  0  0  0  0  0  0  0
   -2.7975    0.1457    0.0889 C   0  0  0  0  0  0  0  0  0  0  0  0
   -2.5060   -0.7228    1.1299 C   0  0  0  0  0  0  0  0  0  0  0  0
   -1.1751   -1.0625    1.3957 C   0  0  0  0  0  0  0  0  0  0  0  0
   -0.1184   -0.5589    0.6498 C   0  0  0  0  0  0  0  0  0  0  0  0
    1.1225   -0.9424    0.9804 N   0  0  0  0  0  0  0  0  0  0  0  0
    2.1754   -0.4842    0.2911 C   0  0  0  0  0  0  0  0  0  0  0  0
    3.4360   -0.9153    0.6782 C   0  0  0  0  0  0  0  0  0  0  0  0
    4.5844   -0.4885    0.0169 C   0  0  0  0  0  0  0  0  0  0  0  0
    6.1278   -1.0478    0.5298 Cl  0  0  0  0  0  0  0  0  0  0  0  0
    4.4888    0.3860   -1.0542 C   0  0  0  0  0  0  0  0  0  0  0  0
    3.2304    0.8299   -1.4575 C   0  0  0  0  0  0  0  0  0  0  0  0
    2.0506    0.4025   -0.7916 C   0  0  0  0  0  0  0  0  0  0  0  0
    0.7317    0.7973   -1.1271 C   0  0  0  0  0  0  0  0  0  0  0  0
    0.4859    1.8979   -2.4606 Cl  0  0  0  0  0  0  0  0  0  0  0  0
   -0.3910    0.3207   -0.4069 C   0  0  0  0  0  0  0  0  0  0  0  0
   -1.7453    0.6610   -0.6709 C   0  0  0  0  0  0  0  0  0  0  0  0
   -5.0858    0.3803    1.5056 H   0  0  0  0  0  0  0  0  0  0  0  0
   -6.0566    0.4971    0.0324 H   0  0  0  0  0  0  0  0  0  0  0  0
   -5.2173   -1.0214    0.3729 H   0  0  0  0  0  0  0  0  0  0  0  0
   -3.2789   -1.1560    1.7557 H   0  0  0  0  0  0  0  0  0  0  0  0
   -0.9574   -1.7451    2.2152 H   0  0  0  0  0  0  0  0  0  0  0  0
    3.5190   -1.6016    1.5179 H   0  0  0  0  0  0  0  0  0  0  0  0
    5.3789    0.7252   -1.5774 H   0  0  0  0  0  0  0  0  0  0  0  0
    3.1781    1.5161   -2.3006 H   0  0  0  0  0  0  0  0  0  0  0  0
   -1.9955    1.3409   -1.4832 H   0  0  0  0  0  0  0  0  0  0  0  0
  1  2  1  0
  2  3  1  0
  3  4  2  0
  4  5  1  0
  5  6  2  0
  6  7  1  0
  7  8  2  0
  8  9  1  0
  9 10  2  0
 10 11  1  0
 10 12  1  0
 12 13  2  0
 13 14  1  0
 14 15  2  0
 15 16  1  0
 15 17  1  0
 17 18  2  0
 18  3  1  0
 17  6  1  0
 14  8  1  0
  1 19  1  0
  1 20  1  0
  1 21  1  0
  4 22  1  0
  5 23  1  0
  9 24  1  0
 12 25  1  0
 13 26  1  0
 18 27  1  0
M  END
>  <Unnamed: 0>  (97) 
589

>  <ID>  (97) 
TRAIN_0589

>  <Canonical_Smiles>  (97) 
COc1ccc2nc3cc(Cl)ccc3c(Cl)c2c1

>  <Inhibition>  (97) 
2.69

>  <TDC_conf_true_inhibitor>  (97) 
0

>  <TDC_conf_non_inhibitor>  (97) 
1

>  <split>  (97) 
1

$$$$
97
     RDKit          3D

 33 35  0  0  0  0  0  0  0  0999 V2000
   -1.0031    3.6659    0.4330 C   0  0  0  0  0  0  0  0  0  0  0  0
    0.1276    2.7194   -0.6145 S   0  0  0  0  0  4  0  0  0  0  0  0
    1.5016    2.8709   -0.0286 O   0  0  0  0  0  0  0  0  0  0  0  0
   -0.4335    1.0445   -0.2193 C   0  0  0  0  0  0  0  0  0  0  0  0
   -1.7745    1.0186   -0.0004 N   0  0  0  0  0  0  0  0  0  0  0  0
   -2.3547   -0.1446    0.3173 C   0  0  0  0  0  0  0  0  0  0  0  0
   -3.7207   -0.1458    0.5751 C   0  0  0  0  0  0  0  0  0  0  0  0
   -4.4002   -1.3111    0.9328 C   0  0  0  0  0  0  0  0  0  0  0  0
   -3.6936   -2.4950    1.0395 C   0  0  0  0  0  0  0  0  0  0  0  0
   -4.3293   -3.6183    1.3937 F   0  0  0  0  0  0  0  0  0  0  0  0
   -2.3284   -2.5317    0.7848 C   0  0  0  0  0  0  0  0  0  0  0  0
   -1.6382   -1.3553    0.4057 C   0  0  0  0  0  0  0  0  0  0  0  0
   -0.2567   -1.2923    0.1125 C   0  0  0  0  0  0  0  0  0  0  0  0
    0.5177   -2.4310    0.1184 O   0  0  0  0  0  0  0  0  0  0  0  0
    0.3866   -0.0830   -0.2043 C   0  0  0  0  0  0  0  0  0  0  0  0
    1.8213   -0.0535   -0.5265 C   0  0  0  0  0  0  0  0  0  0  0  0
    2.2588    0.0394   -1.8573 C   0  0  0  0  0  0  0  0  0  0  0  0
    3.6230    0.0666   -2.1603 C   0  0  0  0  0  0  0  0  0  0  0  0
    4.5715   -0.0041   -1.1374 C   0  0  0  0  0  0  0  0  0  0  0  0
    6.2402    0.0276   -1.5856 Cl  0  0  0  0  0  0  0  0  0  0  0  0
    4.1520   -0.1045    0.1924 C   0  0  0  0  0  0  0  0  0  0  0  0
    5.2670   -0.2089    1.5095 Cl  0  0  0  0  0  0  0  0  0  0  0  0
    2.7857   -0.1310    0.4924 C   0  0  0  0  0  0  0  0  0  0  0  0
   -0.6816    4.7107    0.4257 H   0  0  0  0  0  0  0  0  0  0  0  0
   -2.0193    3.6113    0.0353 H   0  0  0  0  0  0  0  0  0  0  0  0
   -0.9716    3.2920    1.4595 H   0  0  0  0  0  0  0  0  0  0  0  0
   -4.2728    0.7891    0.5016 H   0  0  0  0  0  0  0  0  0  0  0  0
   -5.4665   -1.2941    1.1345 H   0  0  0  0  0  0  0  0  0  0  0  0
   -1.8215   -3.4830    0.9076 H   0  0  0  0  0  0  0  0  0  0  0  0
   -0.0285   -3.2026   -0.0993 H   0  0  0  0  0  0  0  0  0  0  0  0
    1.5376    0.0943   -2.6702 H   0  0  0  0  0  0  0  0  0  0  0  0
    3.9388    0.1452   -3.1976 H   0  0  0  0  0  0  0  0  0  0  0  0
    2.4656   -0.2057    1.5297 H   0  0  0  0  0  0  0  0  0  0  0  0
  1  2  1  0
  2  3  2  0
  2  4  1  0
  4  5  2  0
  5  6  1  0
  6  7  2  0
  7  8  1  0
  8  9  2  0
  9 10  1  0
  9 11  1  0
 11 12  2  0
 12 13  1  0
 13 14  1  0
 13 15  2  0
 15 16  1  0
 16 17  2  0
 17 18  1  0
 18 19  2  0
 19 20  1  0
 19 21  1  0
 21 22  1  0
 21 23  2  0
 15  4  1  0
 12  6  1  0
 23 16  1  0
  1 24  1  0
  1 25  1  0
  1 26  1  0
  7 27  1  0
  8 28  1  0
 11 29  1  0
 14 30  1  0
 17 31  1  0
 18 32  1  0
 23 33  1  0
M  END
>  <Unnamed: 0>  (98) 
597

>  <ID>  (98) 
TRAIN_0597

>  <Canonical_Smiles>  (98) 
CS(=O)c1nc2ccc(F)cc2c(O)c1c3ccc(Cl)c(Cl)c3

>  <Inhibition>  (98) 
29.6

>  <TDC_conf_true_inhibitor>  (98) 
0

>  <TDC_conf_non_inhibitor>  (98) 
1

>  <split>  (98) 
1

$$$$
98
     RDKit          3D

 35 37  0  0  0  0  0  0  0  0999 V2000
   -3.0702    1.8426    0.5909 O   0  0  0  0  0  0  0  0  0  0  0  0
   -3.9286    0.7983    0.3563 C   0  0  0  0  0  0  0  0  0  0  0  0
   -5.3045    1.0367    0.4458 C   0  0  0  0  0  0  0  0  0  0  0  0
   -6.2071   -0.0013    0.2138 C   0  0  0  0  0  0  0  0  0  0  0  0
   -5.7342   -1.2710   -0.1062 C   0  0  0  0  0  0  0  0  0  0  0  0
   -6.8521   -2.5470   -0.3913 Cl  0  0  0  0  0  0  0  0  0  0  0  0
   -4.3650   -1.5136   -0.1966 C   0  0  0  0  0  0  0  0  0  0  0  0
   -3.4393   -0.4804    0.0337 C   0  0  0  0  0  0  0  0  0  0  0  0
   -1.9828   -0.8341   -0.0858 C   0  0  0  0  0  0  0  0  0  0  0  0
   -1.6859   -1.9891   -0.3738 O   0  0  0  0  0  0  0  0  0  0  0  0
   -1.0853    0.1893    0.1429 N   0  0  0  0  0  0  0  0  0  0  0  0
    0.3210    0.1398    0.0986 C   0  0  0  0  0  0  0  0  0  0  0  0
    1.0095    1.3277    0.3720 C   0  0  0  0  0  0  0  0  0  0  0  0
    2.4113    1.3750    0.3514 C   0  0  0  0  0  0  0  0  0  0  0  0
    3.1604    0.2314    0.0558 C   0  0  0  0  0  0  0  0  0  0  0  0
    4.6295    0.1975    0.0139 C   0  0  0  0  0  0  0  0  0  0  0  0
    5.2305   -0.9657   -0.2831 C   0  0  0  0  0  0  0  0  0  0  0  0
    4.5023   -2.2083   -0.5690 C   0  0  0  0  0  0  0  0  0  0  0  0
    5.1106   -3.2379   -0.8336 O   0  0  0  0  0  0  0  0  0  0  0  0
    3.1231   -2.1452   -0.5220 O   0  0  0  0  0  0  0  0  0  0  0  0
    2.4547   -0.9425   -0.2138 C   0  0  0  0  0  0  0  0  0  0  0  0
    1.0571   -1.0038   -0.1967 C   0  0  0  0  0  0  0  0  0  0  0  0
    5.4180    1.4377    0.2978 C   0  0  0  0  0  0  0  0  0  0  0  0
    5.1777    1.9199    1.5438 F   0  0  0  0  0  0  0  0  0  0  0  0
    6.7589    1.2331    0.2173 F   0  0  0  0  0  0  0  0  0  0  0  0
    5.1291    2.4359   -0.5756 F   0  0  0  0  0  0  0  0  0  0  0  0
   -3.5927    2.6395    0.7969 H   0  0  0  0  0  0  0  0  0  0  0  0
   -5.6941    2.0202    0.6942 H   0  0  0  0  0  0  0  0  0  0  0  0
   -7.2762    0.1846    0.2835 H   0  0  0  0  0  0  0  0  0  0  0  0
   -4.0151   -2.5137   -0.4482 H   0  0  0  0  0  0  0  0  0  0  0  0
   -1.5015    1.0890    0.3714 H   0  0  0  0  0  0  0  0  0  0  0  0
    0.4638    2.2392    0.6065 H   0  0  0  0  0  0  0  0  0  0  0  0
    2.8855    2.3289    0.5728 H   0  0  0  0  0  0  0  0  0  0  0  0
    6.3113   -1.0594   -0.3307 H   0  0  0  0  0  0  0  0  0  0  0  0
    0.5802   -1.9531   -0.4170 H   0  0  0  0  0  0  0  0  0  0  0  0
  1  2  1  0
  2  3  2  0
  3  4  1  0
  4  5  2  0
  5  6  1  0
  5  7  1  0
  7  8  2  0
  8  9  1  0
  9 10  2  0
  9 11  1  0
 11 12  1  0
 12 13  2  0
 13 14  1  0
 14 15  2  0
 15 16  1  0
 16 17  2  0
 17 18  1  0
 18 19  2  0
 18 20  1  0
 20 21  1  0
 21 22  2  0
 16 23  1  0
 23 24  1  0
 23 25  1  0
 23 26  1  0
  8  2  1  0
 22 12  1  0
 21 15  1  0
  1 27  1  0
  3 28  1  0
  4 29  1  0
  7 30  1  0
 11 31  1  0
 13 32  1  0
 14 33  1  0
 17 34  1  0
 22 35  1  0
M  END
>  <Unnamed: 0>  (99) 
601

>  <ID>  (99) 
TRAIN_0601

>  <Canonical_Smiles>  (99) 
Oc1ccc(Cl)cc1C(=O)Nc2ccc3C(=CC(=O)Oc3c2)C(F)(F)F

>  <Inhibition>  (99) 
0.0

>  <TDC_conf_true_inhibitor>  (99) 
0

>  <TDC_conf_non_inhibitor>  (99) 
1

>  <split>  (99) 
1

$$$$
99
     RDKit          3D

 36 38  0  0  0  0  0  0  0  0999 V2000
    4.0726   -2.0150   -1.4587 C   0  0  0  0  0  0  0  0  0  0  0  0
    3.6747   -1.2476   -0.2069 C   0  0  0  0  0  0  0  0  0  0  0  0
    2.4813   -0.4282   -0.4033 N   0  0  0  0  0  0  0  0  0  0  0  0
    1.2003   -1.1237   -0.4402 C   0  0  0  0  0  0  0  0  0  0  0  0
    0.0973   -0.1714   -0.1533 C   0  0  0  0  0  0  0  0  0  0  0  0
   -1.1488   -0.3451    0.4407 C   0  0  0  0  0  0  0  0  0  0  0  0
   -1.6538   -1.6234    0.9443 C   0  0  0  0  0  0  0  0  0  0  0  0
   -1.0585   -2.6851    0.7933 O   0  0  0  0  0  0  0  0  0  0  0  0
   -2.8492   -1.5119    1.5904 O   0  0  0  0  0  0  0  0  0  0  0  0
   -3.3624   -2.7458    2.0920 C   0  0  0  0  0  0  0  0  0  0  0  0
   -1.7887    0.9460    0.4261 C   0  0  0  0  0  0  0  0  0  0  0  0
   -3.0383    1.4352    0.8688 C   0  0  0  0  0  0  0  0  0  0  0  0
   -3.3571    2.7790    0.6785 C   0  0  0  0  0  0  0  0  0  0  0  0
   -4.5442    3.2343    1.1020 F   0  0  0  0  0  0  0  0  0  0  0  0
   -2.4787    3.6532    0.0596 C   0  0  0  0  0  0  0  0  0  0  0  0
   -1.2378    3.2020   -0.3924 C   0  0  0  0  0  0  0  0  0  0  0  0
   -0.9145    1.8476   -0.1962 C   0  0  0  0  0  0  0  0  0  0  0  0
    0.2125    1.1368   -0.5309 N   0  0  0  0  0  0  0  0  0  0  0  0
    1.3833    1.6516   -1.2161 C   0  0  0  0  0  0  0  0  0  0  0  0
    2.6346    0.8376   -0.9580 C   0  0  0  0  0  0  0  0  0  0  0  0
    3.7390    1.3071   -1.2438 O   0  0  0  0  0  0  0  0  0  0  0  0
    3.2839   -2.7099   -1.7642 H   0  0  0  0  0  0  0  0  0  0  0  0
    4.2630   -1.3363   -2.2963 H   0  0  0  0  0  0  0  0  0  0  0  0
    4.9824   -2.5947   -1.2744 H   0  0  0  0  0  0  0  0  0  0  0  0
    4.5059   -0.6005    0.0962 H   0  0  0  0  0  0  0  0  0  0  0  0
    3.4892   -1.9386    0.6228 H   0  0  0  0  0  0  0  0  0  0  0  0
    1.2307   -1.9203    0.3082 H   0  0  0  0  0  0  0  0  0  0  0  0
    1.0724   -1.5649   -1.4344 H   0  0  0  0  0  0  0  0  0  0  0  0
   -3.5457   -3.4470    1.2719 H   0  0  0  0  0  0  0  0  0  0  0  0
   -4.3142   -2.5393    2.5891 H   0  0  0  0  0  0  0  0  0  0  0  0
   -2.6752   -3.1772    2.8267 H   0  0  0  0  0  0  0  0  0  0  0  0
   -3.7629    0.7907    1.3550 H   0  0  0  0  0  0  0  0  0  0  0  0
   -2.7654    4.6924   -0.0710 H   0  0  0  0  0  0  0  0  0  0  0  0
   -0.5511    3.8881   -0.8786 H   0  0  0  0  0  0  0  0  0  0  0  0
    1.1632    1.6532   -2.2878 H   0  0  0  0  0  0  0  0  0  0  0  0
    1.5603    2.6708   -0.8592 H   0  0  0  0  0  0  0  0  0  0  0  0
  1  2  1  0
  2  3  1  0
  3  4  1  0
  4  5  1  0
  5  6  2  0
  6  7  1  0
  7  8  2  0
  7  9  1  0
  9 10  1  0
  6 11  1  0
 11 12  2  0
 12 13  1  0
 13 14  1  0
 13 15  2  0
 15 16  1  0
 16 17  2  0
 17 18  1  0
 18 19  1  0
 19 20  1  0
 20 21  2  0
 20  3  1  0
 18  5  1  0
 17 11  1  0
  1 22  1  0
  1 23  1  0
  1 24  1  0
  2 25  1  0
  2 26  1  0
  4 27  1  0
  4 28  1  0
 10 29  1  0
 10 30  1  0
 10 31  1  0
 12 32  1  0
 15 33  1  0
 16 34  1  0
 19 35  1  0
 19 36  1  0
M  END
>  <Unnamed: 0>  (100) 
610

>  <ID>  (100) 
TRAIN_0610

>  <Canonical_Smiles>  (100) 
CCN1Cc2c(C(=O)OC)c3cc(F)ccc3n2CC1=O

>  <Inhibition>  (100) 
0.0

>  <TDC_conf_true_inhibitor>  (100) 
0

>  <TDC_conf_non_inhibitor>  (100) 
1

>  <split>  (100) 
1

$$$$
100
     RDKit          3D

 33 35  0  0  0  0  0  0  0  0999 V2000
    6.3470    0.5375    0.1931 C   0  0  0  0  0  0  0  0  0  0  0  0
    4.8697    0.6779   -0.0247 C   0  0  0  0  0  0  0  0  0  0  0  0
    4.2653    0.0974   -1.1458 C   0  0  0  0  0  0  0  0  0  0  0  0
    2.8859    0.2002   -1.3409 C   0  0  0  0  0  0  0  0  0  0  0  0
    2.0843    0.8828   -0.4146 C   0  0  0  0  0  0  0  0  0  0  0  0
    0.5928    0.9864   -0.6184 C   0  0  0  0  0  0  0  0  0  0  0  0
   -0.2626   -0.4862    0.0152 S   0  0  0  0  0  0  0  0  0  0  0  0
   -1.9538   -0.0671   -0.2507 C   0  0  0  0  0  0  0  0  0  0  0  0
   -2.2917    1.0403   -0.9287 N   0  0  0  0  0  0  0  0  0  0  0  0
   -3.8509    0.9669   -0.8910 S   0  0  0  0  0  6  0  0  0  0  0  0
   -4.4319    0.9863   -2.3935 O   0  0  0  0  0  0  0  0  0  0  0  0
   -4.4591    2.3279   -0.2852 O   0  0  0  0  0  0  0  0  0  0  0  0
   -4.3189   -0.3455   -0.0783 C   0  0  0  0  0  0  0  0  0  0  0  0
   -5.5423   -0.9226    0.2821 C   0  0  0  0  0  0  0  0  0  0  0  0
   -5.5152   -2.1216    1.0002 C   0  0  0  0  0  0  0  0  0  0  0  0
   -4.3078   -2.7178    1.3529 C   0  0  0  0  0  0  0  0  0  0  0  0
   -3.0869   -2.1321    0.9965 C   0  0  0  0  0  0  0  0  0  0  0  0
   -3.0687   -0.9192    0.2621 C   0  0  0  0  0  0  0  0  0  0  0  0
    2.6897    1.4443    0.7185 C   0  0  0  0  0  0  0  0  0  0  0  0
    4.0692    1.3392    0.9128 C   0  0  0  0  0  0  0  0  0  0  0  0
    6.7209    1.3066    0.8774 H   0  0  0  0  0  0  0  0  0  0  0  0
    6.5717   -0.4465    0.6172 H   0  0  0  0  0  0  0  0  0  0  0  0
    6.8881    0.6520   -0.7521 H   0  0  0  0  0  0  0  0  0  0  0  0
    4.8666   -0.4443   -1.8730 H   0  0  0  0  0  0  0  0  0  0  0  0
    2.4402   -0.2589   -2.2211 H   0  0  0  0  0  0  0  0  0  0  0  0
    0.2170    1.8799   -0.1066 H   0  0  0  0  0  0  0  0  0  0  0  0
    0.3817    1.1148   -1.6860 H   0  0  0  0  0  0  0  0  0  0  0  0
   -6.4837   -0.4578    0.0017 H   0  0  0  0  0  0  0  0  0  0  0  0
   -6.4528   -2.5958    1.2871 H   0  0  0  0  0  0  0  0  0  0  0  0
   -4.3111   -3.6520    1.9136 H   0  0  0  0  0  0  0  0  0  0  0  0
   -2.1563   -2.6169    1.2856 H   0  0  0  0  0  0  0  0  0  0  0  0
    2.0899    1.9661    1.4617 H   0  0  0  0  0  0  0  0  0  0  0  0
    4.5138    1.7779    1.8037 H   0  0  0  0  0  0  0  0  0  0  0  0
  1  2  1  0
  2  3  2  0
  3  4  1  0
  4  5  2  0
  5  6  1  0
  6  7  1  0
  7  8  1  0
  8  9  2  0
  9 10  1  0
 10 11  2  0
 10 12  2  0
 10 13  1  0
 13 14  2  0
 14 15  1  0
 15 16  2  0
 16 17  1  0
 17 18  2  0
  5 19  1  0
 19 20  2  0
 20  2  1  0
 18  8  1  0
 18 13  1  0
  1 21  1  0
  1 22  1  0
  1 23  1  0
  3 24  1  0
  4 25  1  0
  6 26  1  0
  6 27  1  0
 14 28  1  0
 15 29  1  0
 16 30  1  0
 17 31  1  0
 19 32  1  0
 20 33  1  0
M  END
>  <Unnamed: 0>  (101) 
655

>  <ID>  (101) 
TRAIN_0655

>  <Canonical_Smiles>  (101) 
Cc1ccc(CSC2=NS(=O)(=O)c3ccccc23)cc1

>  <Inhibition>  (101) 
77.4

>  <TDC_conf_true_inhibitor>  (101) 
1

>  <TDC_conf_non_inhibitor>  (101) 
0

>  <split>  (101) 
1

$$$$
101
     RDKit          3D

 54 56  0  0  0  0  0  0  0  0999 V2000
   -2.5820    1.8386   -2.0866 C   0  0  0  0  0  0  0  0  0  0  0  0
   -2.1977    0.3715   -1.9194 C   0  0  1  0  0  0  0  0  0  0  0  0
   -1.3521    0.2606   -0.7648 O   0  0  0  0  0  0  0  0  0  0  0  0
   -0.2254   -0.4965   -0.9089 C   0  0  0  0  0  0  0  0  0  0  0  0
   -0.1149   -1.6685   -1.6455 C   0  0  0  0  0  0  0  0  0  0  0  0
    1.0329   -2.3814   -1.7568 N   0  0  0  0  0  0  0  0  0  0  0  0
    2.1099   -1.9097   -1.0822 C   0  0  0  0  0  0  0  0  0  0  0  0
    2.1012   -0.7612   -0.2945 C   0  0  0  0  0  0  0  0  0  0  0  0
    0.8962   -0.0584   -0.2060 C   0  0  0  0  0  0  0  0  0  0  0  0
    3.2810   -0.2991    0.4071 C   0  0  0  0  0  0  0  0  0  0  0  0
    3.4127    0.3652    1.6507 C   0  0  0  0  0  0  0  0  0  0  0  0
    4.6808    0.6638    1.9415 N   0  0  0  0  0  0  0  0  0  0  0  0
    5.3683    0.1988    0.8760 N   0  0  0  0  0  0  0  0  0  0  0  0
    6.8097    0.3838    0.8172 C   0  0  0  0  0  0  0  0  0  0  0  0
    7.1964    1.8519    0.9628 C   0  0  0  0  0  0  0  0  0  0  0  0
    7.0202    2.3085    2.3019 O   0  0  0  0  0  0  0  0  0  0  0  0
    4.5750   -0.3932   -0.0652 C   0  0  0  0  0  0  0  0  0  0  0  0
   -3.3844   -0.5067   -1.7313 C   0  0  0  0  0  0  0  0  0  0  0  0
   -3.7744   -1.4670   -2.5511 N   0  0  0  0  0  0  0  0  0  0  0  0
   -4.9082   -2.0439   -2.0303 N   0  0  0  0  0  0  0  0  0  0  0  0
   -5.1855   -1.4291   -0.9001 C   0  0  0  0  0  0  0  0  0  0  0  0
   -6.2160   -1.5978    0.0463 C   0  0  0  0  0  0  0  0  0  0  0  0
   -6.2450   -0.8072    1.1248 C   0  0  0  0  0  0  0  0  0  0  0  0
   -5.1710    0.2218    1.2588 C   0  0  0  0  0  0  0  0  0  0  0  0
   -5.2171    1.1111    2.4781 C   0  0  0  0  0  0  0  0  0  0  0  0
   -4.2132    0.4151    0.4025 N   0  0  0  0  0  0  0  0  0  0  0  0
   -4.2515   -0.4415   -0.6637 N   0  0  0  0  0  0  0  0  0  0  0  0
    1.4549   -0.4271   -0.4592 O   0  0  0  0  0  0  0  0  0  0  0  0
    0.5072    0.3585    0.1164 C   0  0  0  0  0  0  0  0  0  0  0  0
    0.8483    1.4352    0.5908 O   0  0  0  0  0  0  0  0  0  0  0  0
   -0.9120   -0.2152    0.0475 C   0  0  0  0  0  0  0  0  0  0  0  0
   -1.7519    0.3430    0.9643 F   0  0  0  0  0  0  0  0  0  0  0  0
   -1.4872   -0.0120   -1.1720 F   0  0  0  0  0  0  0  0  0  0  0  0
   -0.9490   -1.5605    0.2686 F   0  0  0  0  0  0  0  0  0  0  0  0
   -1.6836    2.4405   -2.2680 H   0  0  0  0  0  0  0  0  0  0  0  0
   -3.0477    2.2482   -1.1831 H   0  0  0  0  0  0  0  0  0  0  0  0
   -3.2721    1.9794   -2.9261 H   0  0  0  0  0  0  0  0  0  0  0  0
   -1.6678    0.0792   -2.8354 H   0  0  0  0  0  0  0  0  0  0  0  0
   -0.9583   -2.1001   -2.1761 H   0  0  0  0  0  0  0  0  0  0  0  0
    3.0047   -2.5193   -1.1909 H   0  0  0  0  0  0  0  0  0  0  0  0
    0.8227    0.8508    0.3849 H   0  0  0  0  0  0  0  0  0  0  0  0
    2.6346    0.6415    2.3554 H   0  0  0  0  0  0  0  0  0  0  0  0
    7.2342   -0.2250    1.6228 H   0  0  0  0  0  0  0  0  0  0  0  0
    7.1524   -0.0038   -0.1474 H   0  0  0  0  0  0  0  0  0  0  0  0
    6.6078    2.4934    0.2986 H   0  0  0  0  0  0  0  0  0  0  0  0
    8.2542    1.9836    0.7149 H   0  0  0  0  0  0  0  0  0  0  0  0
    6.1198    2.0178    2.5730 H   0  0  0  0  0  0  0  0  0  0  0  0
    4.9886   -0.8010   -0.9789 H   0  0  0  0  0  0  0  0  0  0  0  0
   -6.9623   -2.3663   -0.1217 H   0  0  0  0  0  0  0  0  0  0  0  0
   -7.0092   -0.8863    1.8853 H   0  0  0  0  0  0  0  0  0  0  0  0
   -4.2277    1.1370    2.9463 H   0  0  0  0  0  0  0  0  0  0  0  0
   -5.4947    2.1255    2.1723 H   0  0  0  0  0  0  0  0  0  0  0  0
   -5.9416    0.7495    3.2129 H   0  0  0  0  0  0  0  0  0  0  0  0
    2.2897    0.0781   -0.3564 H   0  0  0  0  0  0  0  0  0  0  0  0
  1  2  1  0
  2  3  1  0
  3  4  1  0
  4  5  2  0
  5  6  1  0
  6  7  2  0
  7  8  1  0
  8  9  2  0
  8 10  1  0
 10 11  1  0
 11 12  2  0
 12 13  1  0
 13 14  1  0
 14 15  1  0
 15 16  1  0
 13 17  1  0
  2 18  1  0
 18 19  2  0
 19 20  1  0
 20 21  2  0
 21 22  1  0
 22 23  2  0
 23 24  1  0
 24 25  1  0
 24 26  2  0
 26 27  1  0
 28 29  1  0
 29 30  2  0
 29 31  1  0
 31 32  1  0
 31 33  1  0
 31 34  1  0
  9  4  1  0
 17 10  2  0
 27 18  1  0
 27 21  1  0
  1 35  1  0
  1 36  1  0
  1 37  1  0
  2 38  1  6
  5 39  1  0
  7 40  1  0
  9 41  1  0
 11 42  1  0
 14 43  1  0
 14 44  1  0
 15 45  1  0
 15 46  1  0
 16 47  1  0
 17 48  1  0
 22 49  1  0
 23 50  1  0
 25 51  1  0
 25 52  1  0
 25 53  1  0
 28 54  1  0
M  END
>  <Unnamed: 0>  (102) 
666

>  <ID>  (102) 
TRAIN_0666

>  <Canonical_Smiles>  (102) 
C[C@@H](Oc1cncc(c1)c2cnn(CCO)c2)c3nnc4ccc(C)nn34.OC(=O)C(F)(F)F

>  <Inhibition>  (102) 
24.7

>  <TDC_conf_true_inhibitor>  (102) 
0

>  <TDC_conf_non_inhibitor>  (102) 
1

>  <split>  (102) 
1

$$$$
102
     RDKit          3D

 36 39  0  0  0  0  0  0  0  0999 V2000
    7.3382   -0.0320   -2.2787 O   0  0  0  0  0  1  0  0  0  0  0  0
    6.6882   -0.9958   -1.8456 N   0  0  0  0  0  4  0  0  0  0  0  0
    6.9633   -2.1890   -2.0247 O   0  0  0  0  0  0  0  0  0  0  0  0
    5.5108   -0.6806   -1.0653 C   0  0  0  0  0  0  0  0  0  0  0  0
    5.0266    0.5902   -0.7544 C   0  0  0  0  0  0  0  0  0  0  0  0
    3.9333    0.3162   -0.0262 N   0  0  0  0  0  0  0  0  0  0  0  0
    2.8720    1.0201    0.6401 C   0  0  0  0  0  0  0  0  0  0  0  0
    2.0962   -0.1695    1.2656 C   0  0  0  0  0  0  0  0  0  0  0  0
    2.7183   -1.4010    0.7760 O   0  0  0  0  0  0  0  0  0  0  0  0
    3.7788   -1.0185    0.0859 C   0  0  0  0  0  0  0  0  0  0  0  0
    4.7091   -1.6906   -0.5286 N   0  0  0  0  0  0  0  0  0  0  0  0
    0.6182   -0.1203    0.9454 C   0  0  0  0  0  0  0  0  0  0  0  0
   -0.2429    0.6336    1.7546 C   0  0  0  0  0  0  0  0  0  0  0  0
   -1.6076    0.7190    1.4585 C   0  0  0  0  0  0  0  0  0  0  0  0
   -2.1522    0.0582    0.3470 C   0  0  0  0  0  0  0  0  0  0  0  0
   -1.2832   -0.6915   -0.4599 C   0  0  0  0  0  0  0  0  0  0  0  0
    0.0824   -0.7788   -0.1686 C   0  0  0  0  0  0  0  0  0  0  0  0
   -3.5892    0.1457    0.0393 C   0  0  0  0  0  0  0  0  0  0  0  0
   -4.3636   -1.0135   -0.1358 C   0  0  0  0  0  0  0  0  0  0  0  0
   -5.7281   -0.9323   -0.4272 C   0  0  0  0  0  0  0  0  0  0  0  0
   -6.3419    0.3114   -0.5497 C   0  0  0  0  0  0  0  0  0  0  0  0
   -5.5932    1.4732   -0.3806 C   0  0  0  0  0  0  0  0  0  0  0  0
   -4.2290    1.3901   -0.0881 C   0  0  0  0  0  0  0  0  0  0  0  0
    5.3765    1.5834   -0.9998 H   0  0  0  0  0  0  0  0  0  0  0  0
    2.3064    1.5891   -0.1035 H   0  0  0  0  0  0  0  0  0  0  0  0
    3.2990    1.6828    1.3975 H   0  0  0  0  0  0  0  0  0  0  0  0
    2.2302   -0.1746    2.3555 H   0  0  0  0  0  0  0  0  0  0  0  0
    0.1340    1.1568    2.6312 H   0  0  0  0  0  0  0  0  0  0  0  0
   -2.2539    1.2976    2.1164 H   0  0  0  0  0  0  0  0  0  0  0  0
   -1.6657   -1.2125   -1.3361 H   0  0  0  0  0  0  0  0  0  0  0  0
    0.7180   -1.3736   -0.8230 H   0  0  0  0  0  0  0  0  0  0  0  0
   -3.9069   -1.9961   -0.0336 H   0  0  0  0  0  0  0  0  0  0  0  0
   -6.3097   -1.8415   -0.5559 H   0  0  0  0  0  0  0  0  0  0  0  0
   -7.4028    0.3750   -0.7771 H   0  0  0  0  0  0  0  0  0  0  0  0
   -6.0687    2.4455   -0.4789 H   0  0  0  0  0  0  0  0  0  0  0  0
   -3.6611    2.3108    0.0283 H   0  0  0  0  0  0  0  0  0  0  0  0
  1  2  1  0
  2  3  2  0
  2  4  1  0
  4  5  2  0
  5  6  1  0
  6  7  1  0
  7  8  1  0
  8  9  1  0
  9 10  1  0
 10 11  2  0
  8 12  1  0
 12 13  2  0
 13 14  1  0
 14 15  2  0
 15 16  1  0
 16 17  2  0
 15 18  1  0
 18 19  2  0
 19 20  1  0
 20 21  2  0
 21 22  1  0
 22 23  2  0
 11  4  1  0
 10  6  1  0
 17 12  1  0
 23 18  1  0
  5 24  1  0
  7 25  1  0
  7 26  1  0
  8 27  1  0
 13 28  1  0
 14 29  1  0
 16 30  1  0
 17 31  1  0
 19 32  1  0
 20 33  1  0
 21 34  1  0
 22 35  1  0
 23 36  1  0
M  CHG  2   1  -1   2   1
M  END
>  <Unnamed: 0>  (103) 
679

>  <ID>  (103) 
TRAIN_0679

>  <Canonical_Smiles>  (103) 
[O-][N+](=O)c1cn2CC(Oc2n1)c3ccc(cc3)c4ccccc4

>  <Inhibition>  (103) 
28.4

>  <TDC_conf_true_inhibitor>  (103) 
0

>  <TDC_conf_non_inhibitor>  (103) 
1

>  <split>  (103) 
1

$$$$
103
     RDKit          3D

 35 38  0  0  0  0  0  0  0  0999 V2000
    3.4511    2.5164    1.2597 C   0  0  0  0  0  0  0  0  0  0  0  0
    2.3186    1.6394    0.8744 C   0  0  0  0  0  0  0  0  0  0  0  0
    1.0333    2.0718    1.1031 N   0  0  0  0  0  0  0  0  0  0  0  0
    0.2567    1.1068    0.6702 C   0  0  0  0  0  0  0  0  0  0  0  0
   -1.1648    1.0156    0.6585 C   0  0  0  0  0  0  0  0  0  0  0  0
   -1.7782   -0.0786    0.1560 C   0  0  0  0  0  0  0  0  0  0  0  0
   -0.9777   -1.1794   -0.3765 C   0  0  0  0  0  0  0  0  0  0  0  0
    0.3636   -1.0977   -0.3654 C   0  0  0  0  0  0  0  0  0  0  0  0
    0.9905    0.0368    0.1545 N   0  0  0  0  0  0  0  0  0  0  0  0
    2.3252    0.3796    0.2877 C   0  0  0  0  0  0  0  0  0  0  0  0
    3.6119   -0.4251   -0.1123 C   0  0  0  0  0  0  0  0  0  0  0  0
    3.7154   -1.7037   -0.7059 C   0  0  0  0  0  0  0  0  0  0  0  0
    5.0638   -1.9383   -0.8433 C   0  0  0  0  0  0  0  0  0  0  0  0
    5.6819   -0.8343   -0.3458 N   0  0  0  0  0  0  0  0  0  0  0  0
    4.8287    0.0944    0.1024 N   0  0  0  0  0  0  0  0  0  0  0  0
   -3.2515   -0.1181    0.1736 C   0  0  0  0  0  0  0  0  0  0  0  0
   -3.9957    0.6764   -0.7116 C   0  0  0  0  0  0  0  0  0  0  0  0
   -5.3908    0.6261   -0.6967 C   0  0  0  0  0  0  0  0  0  0  0  0
   -6.0368   -0.2180    0.1993 C   0  0  0  0  0  0  0  0  0  0  0  0
   -7.3752   -0.2662    0.2120 F   0  0  0  0  0  0  0  0  0  0  0  0
   -5.3152   -1.0141    1.0815 C   0  0  0  0  0  0  0  0  0  0  0  0
   -3.9199   -0.9662    1.0687 C   0  0  0  0  0  0  0  0  0  0  0  0
    4.0544    2.7795    0.3856 H   0  0  0  0  0  0  0  0  0  0  0  0
    3.0852    3.4491    1.7017 H   0  0  0  0  0  0  0  0  0  0  0  0
    4.0877    2.0263    2.0024 H   0  0  0  0  0  0  0  0  0  0  0  0
   -1.7193    1.8527    1.0703 H   0  0  0  0  0  0  0  0  0  0  0  0
   -1.4882   -2.0486   -0.7797 H   0  0  0  0  0  0  0  0  0  0  0  0
    0.9713   -1.8952   -0.7550 H   0  0  0  0  0  0  0  0  0  0  0  0
    2.9435   -2.3909   -1.0064 H   0  0  0  0  0  0  0  0  0  0  0  0
    5.6219   -2.7734   -1.2414 H   0  0  0  0  0  0  0  0  0  0  0  0
    6.6769   -0.6450   -0.2795 H   0  0  0  0  0  0  0  0  0  0  0  0
   -3.4927    1.3351   -1.4165 H   0  0  0  0  0  0  0  0  0  0  0  0
   -5.9754    1.2377   -1.3764 H   0  0  0  0  0  0  0  0  0  0  0  0
   -5.8421   -1.6639    1.7729 H   0  0  0  0  0  0  0  0  0  0  0  0
   -3.3580   -1.5870    1.7632 H   0  0  0  0  0  0  0  0  0  0  0  0
  1  2  1  0
  2  3  1  0
  3  4  2  0
  4  5  1  0
  5  6  2  0
  6  7  1  0
  7  8  2  0
  8  9  1  0
  9 10  1  0
 10 11  1  0
 11 12  1  0
 12 13  2  0
 13 14  1  0
 14 15  1  0
  6 16  1  0
 16 17  2  0
 17 18  1  0
 18 19  2  0
 19 20  1  0
 19 21  1  0
 21 22  2  0
 10  2  2  0
  9  4  1  0
 15 11  2  0
 22 16  1  0
  1 23  1  0
  1 24  1  0
  1 25  1  0
  5 26  1  0
  7 27  1  0
  8 28  1  0
 12 29  1  0
 13 30  1  0
 14 31  1  0
 17 32  1  0
 18 33  1  0
 21 34  1  0
 22 35  1  0
M  END
>  <Unnamed: 0>  (104) 
680

>  <ID>  (104) 
TRAIN_0680

>  <Canonical_Smiles>  (104) 
Cc1nc2cc(ccn2c1c3cc[nH]n3)c4ccc(F)cc4

>  <Inhibition>  (104) 
48.7

>  <TDC_conf_true_inhibitor>  (104) 
0

>  <TDC_conf_non_inhibitor>  (104) 
1

>  <split>  (104) 
1

$$$$
104
     RDKit          3D

 55 57  0  0  0  0  0  0  0  0999 V2000
    6.6842   -1.1417    1.8444 C   0  0  0  0  0  0  0  0  0  0  0  0
    6.6187   -1.3262    0.3335 C   0  0  0  0  0  0  0  0  0  0  0  0
    7.2528   -2.6537   -0.0707 C   0  0  0  0  0  0  0  0  0  0  0  0
    5.2344   -1.3147   -0.0308 O   0  0  0  0  0  0  0  0  0  0  0  0
    4.9814   -0.9038   -1.3814 C   0  0  0  0  0  0  0  0  0  0  0  0
    4.8804    0.6235   -1.4672 C   0  0  0  0  0  0  0  0  0  0  0  0
    3.8078    1.1310   -0.6286 N   0  0  0  0  0  0  0  0  0  0  0  0
    2.5112    1.1866   -1.0939 C   0  0  0  0  0  0  0  0  0  0  0  0
    2.2200    0.9700   -2.2667 O   0  0  0  0  0  0  0  0  0  0  0  0
    1.5062    1.5068   -0.0920 C   0  0  0  0  0  0  0  0  0  0  0  0
    1.6490    1.9193    1.2570 C   0  0  0  0  0  0  0  0  0  0  0  0
    0.4809    2.1330    1.8682 N   0  0  0  0  0  0  0  0  0  0  0  0
   -0.4179    1.8674    0.9076 N   0  0  0  0  0  0  0  0  0  0  0  0
   -1.8376    1.9505    1.1797 C   0  0  0  0  0  0  0  0  0  0  0  0
   -2.6055    2.0100   -0.1307 C   0  0  0  0  0  0  0  0  0  0  0  0
   -2.1172    0.9956   -1.0833 N   0  0  0  0  0  0  0  0  0  0  0  0
   -0.7048    1.1614   -1.4746 C   0  0  0  0  0  0  0  0  0  0  0  0
    0.1313    1.4858   -0.2825 C   0  0  0  0  0  0  0  0  0  0  0  0
   -3.0200    0.3838   -1.9415 C   0  0  0  0  0  0  0  0  0  0  0  0
   -2.8087    0.1174   -3.5802 S   0  0  0  0  0  0  0  0  0  0  0  0
   -4.2044   -0.0374   -1.3979 N   0  0  0  0  0  0  0  0  0  0  0  0
   -4.2729   -0.7861   -0.1503 C   0  0  0  0  0  0  0  0  0  0  0  0
   -5.6632   -0.8117    0.4364 C   0  0  0  0  0  0  0  0  0  0  0  0
   -6.0931   -1.9480    1.1401 C   0  0  0  0  0  0  0  0  0  0  0  0
   -7.3609   -1.9897    1.7229 C   0  0  0  0  0  0  0  0  0  0  0  0
   -8.2100   -0.8905    1.6210 C   0  0  0  0  0  0  0  0  0  0  0  0
   -7.7910    0.2515    0.9405 C   0  0  0  0  0  0  0  0  0  0  0  0
   -6.5229    0.2947    0.3573 C   0  0  0  0  0  0  0  0  0  0  0  0
    6.2172   -0.1919    2.1310 H   0  0  0  0  0  0  0  0  0  0  0  0
    6.1308   -1.9336    2.3635 H   0  0  0  0  0  0  0  0  0  0  0  0
    7.7194   -1.1413    2.2016 H   0  0  0  0  0  0  0  0  0  0  0  0
    7.1522   -0.4948   -0.1438 H   0  0  0  0  0  0  0  0  0  0  0  0
    6.7093   -3.4974    0.3683 H   0  0  0  0  0  0  0  0  0  0  0  0
    8.2986   -2.7048    0.2486 H   0  0  0  0  0  0  0  0  0  0  0  0
    7.2216   -2.7925   -1.1557 H   0  0  0  0  0  0  0  0  0  0  0  0
    5.7546   -1.2823   -2.0595 H   0  0  0  0  0  0  0  0  0  0  0  0
    4.0286   -1.3576   -1.6773 H   0  0  0  0  0  0  0  0  0  0  0  0
    4.7143    0.9326   -2.5048 H   0  0  0  0  0  0  0  0  0  0  0  0
    5.7990    1.0965   -1.1063 H   0  0  0  0  0  0  0  0  0  0  0  0
    3.9523    1.0347    0.3673 H   0  0  0  0  0  0  0  0  0  0  0  0
    2.5563    2.0806    1.8239 H   0  0  0  0  0  0  0  0  0  0  0  0
   -2.0269    2.8396    1.7901 H   0  0  0  0  0  0  0  0  0  0  0  0
   -2.0960    1.0533    1.7534 H   0  0  0  0  0  0  0  0  0  0  0  0
   -3.6793    1.9180    0.0541 H   0  0  0  0  0  0  0  0  0  0  0  0
   -2.4652    2.9878   -0.6119 H   0  0  0  0  0  0  0  0  0  0  0  0
   -0.3532    0.2343   -1.9408 H   0  0  0  0  0  0  0  0  0  0  0  0
   -0.6440    1.9769   -2.2060 H   0  0  0  0  0  0  0  0  0  0  0  0
   -4.8133   -0.4241   -2.1107 H   0  0  0  0  0  0  0  0  0  0  0  0
   -3.9501   -1.8066   -0.3954 H   0  0  0  0  0  0  0  0  0  0  0  0
   -3.5675   -0.3964    0.5882 H   0  0  0  0  0  0  0  0  0  0  0  0
   -5.4409   -2.8144    1.2343 H   0  0  0  0  0  0  0  0  0  0  0  0
   -7.6833   -2.8790    2.2565 H   0  0  0  0  0  0  0  0  0  0  0  0
   -9.1979   -0.9254    2.0720 H   0  0  0  0  0  0  0  0  0  0  0  0
   -8.4539    1.1082    0.8659 H   0  0  0  0  0  0  0  0  0  0  0  0
   -6.2106    1.1946   -0.1713 H   0  0  0  0  0  0  0  0  0  0  0  0
  1  2  1  0
  2  3  1  0
  2  4  1  0
  4  5  1  0
  5  6  1  0
  6  7  1  0
  7  8  1  0
  8  9  2  0
  8 10  1  0
 10 11  1  0
 11 12  2  0
 12 13  1  0
 13 14  1  0
 14 15  1  0
 15 16  1  0
 16 17  1  0
 17 18  1  0
 16 19  1  0
 19 20  2  0
 19 21  1  0
 21 22  1  0
 22 23  1  0
 23 24  2  0
 24 25  1  0
 25 26  2  0
 26 27  1  0
 27 28  2  0
 18 10  2  0
 18 13  1  0
 28 23  1  0
  1 29  1  0
  1 30  1  0
  1 31  1  0
  2 32  1  0
  3 33  1  0
  3 34  1  0
  3 35  1  0
  5 36  1  0
  5 37  1  0
  6 38  1  0
  6 39  1  0
  7 40  1  0
 11 41  1  0
 14 42  1  0
 14 43  1  0
 15 44  1  0
 15 45  1  0
 17 46  1  0
 17 47  1  0
 21 48  1  0
 22 49  1  0
 22 50  1  0
 24 51  1  0
 25 52  1  0
 26 53  1  0
 27 54  1  0
 28 55  1  0
M  END
>  <Unnamed: 0>  (105) 
683

>  <ID>  (105) 
TRAIN_0683

>  <Canonical_Smiles>  (105) 
CC(C)OCCNC(=O)c1cnn2CCN(Cc12)C(=S)NCc3ccccc3

>  <Inhibition>  (105) 
38.1

>  <TDC_conf_true_inhibitor>  (105) 
1

>  <TDC_conf_non_inhibitor>  (105) 
0

>  <split>  (105) 
1

$$$$
105
     RDKit          3D

 59 62  0  0  0  0  0  0  0  0999 V2000
   -1.6340    6.7731    0.0597 C   0  0  0  0  0  0  0  0  0  0  0  0
   -0.9741    6.6314   -1.1914 O   0  0  0  0  0  0  0  0  0  0  0  0
    0.1638    5.7648   -1.1325 C   0  0  0  0  0  0  0  0  0  0  0  0
   -0.1998    4.2876   -0.9253 C   0  0  0  0  0  0  0  0  0  0  0  0
   -0.3496    4.0167    0.5059 N   0  0  0  0  0  0  0  0  0  0  0  0
   -0.7335    2.8442    0.8554 C   0  0  0  0  0  0  0  0  0  0  0  0
   -0.9645    2.6023    2.6247 S   0  0  0  0  0  0  0  0  0  0  0  0
   -1.5682    0.9922    2.3641 C   0  0  0  0  0  0  0  0  0  0  0  0
   -1.5422    0.6484    1.0645 C   0  0  0  0  0  0  0  0  0  0  0  0
   -1.0306    1.6362    0.1962 N   0  0  0  0  0  0  0  0  0  0  0  0
   -0.9859    1.4925   -1.1695 N   0  0  0  0  0  0  0  0  0  0  0  0
   -0.0656    0.7295   -1.6863 C   0  0  0  0  0  0  0  0  0  0  0  0
   -0.1013    0.5348   -3.1855 C   0  0  0  0  0  0  0  0  0  0  0  0
    1.0173    0.0232   -0.9581 C   0  0  0  0  0  0  0  0  0  0  0  0
    1.9232    0.7329   -0.1703 C   0  0  0  0  0  0  0  0  0  0  0  0
    2.9320    0.0522    0.5205 C   0  0  0  0  0  0  0  0  0  0  0  0
    3.0468   -1.3439    0.4201 C   0  0  0  0  0  0  0  0  0  0  0  0
    2.1388   -2.0447   -0.3897 C   0  0  0  0  0  0  0  0  0  0  0  0
    1.1310   -1.3626   -1.0792 C   0  0  0  0  0  0  0  0  0  0  0  0
    4.0683   -2.0414    1.1308 N   0  0  0  0  0  0  0  0  0  0  0  0
    4.3136   -3.3993    1.1290 C   0  0  0  0  0  0  0  0  0  0  0  0
    5.3908   -3.5980    1.9597 C   0  0  0  0  0  0  0  0  0  0  0  0
    5.8245   -2.4152    2.4795 N   0  0  0  0  0  0  0  0  0  0  0  0
    5.0224   -1.5052    1.9711 C   0  0  0  0  0  0  0  0  0  0  0  0
   -2.0378   -0.6563    0.5993 C   0  0  0  0  0  0  0  0  0  0  0  0
   -3.0182   -0.7384   -0.3929 C   0  0  0  0  0  0  0  0  0  0  0  0
   -3.4729   -1.9801   -0.8413 C   0  0  0  0  0  0  0  0  0  0  0  0
   -2.9591   -3.1703   -0.3064 C   0  0  0  0  0  0  0  0  0  0  0  0
   -3.4774   -4.4885   -0.8129 C   0  0  0  0  0  0  0  0  0  0  0  0
   -1.9785   -3.1037    0.7020 C   0  0  0  0  0  0  0  0  0  0  0  0
   -1.3912   -4.3483    1.3097 C   0  0  0  0  0  0  0  0  0  0  0  0
   -1.5304   -1.8464    1.1432 C   0  0  0  0  0  0  0  0  0  0  0  0
   -2.2020    5.8708    0.3004 H   0  0  0  0  0  0  0  0  0  0  0  0
   -0.9235    7.0078    0.8581 H   0  0  0  0  0  0  0  0  0  0  0  0
   -2.3437    7.6010   -0.0247 H   0  0  0  0  0  0  0  0  0  0  0  0
    0.8700    6.1250   -0.3750 H   0  0  0  0  0  0  0  0  0  0  0  0
    0.6566    5.8616   -2.1062 H   0  0  0  0  0  0  0  0  0  0  0  0
    0.6194    3.6792   -1.3232 H   0  0  0  0  0  0  0  0  0  0  0  0
   -1.1280    4.0687   -1.4643 H   0  0  0  0  0  0  0  0  0  0  0  0
   -1.9367    0.3798    3.1758 H   0  0  0  0  0  0  0  0  0  0  0  0
   -0.9398   -0.1193   -3.4416 H   0  0  0  0  0  0  0  0  0  0  0  0
    0.8271    0.0943   -3.5587 H   0  0  0  0  0  0  0  0  0  0  0  0
   -0.2443    1.5036   -3.6740 H   0  0  0  0  0  0  0  0  0  0  0  0
    1.8570    1.8150   -0.0870 H   0  0  0  0  0  0  0  0  0  0  0  0
    3.6071    0.6511    1.1252 H   0  0  0  0  0  0  0  0  0  0  0  0
    2.1760   -3.1239   -0.5039 H   0  0  0  0  0  0  0  0  0  0  0  0
    0.4218   -1.9248   -1.6834 H   0  0  0  0  0  0  0  0  0  0  0  0
    3.7338   -4.1084    0.5601 H   0  0  0  0  0  0  0  0  0  0  0  0
    5.8742   -4.5345    2.2077 H   0  0  0  0  0  0  0  0  0  0  0  0
    5.0988   -0.4495    2.1877 H   0  0  0  0  0  0  0  0  0  0  0  0
   -3.4341    0.1682   -0.8292 H   0  0  0  0  0  0  0  0  0  0  0  0
   -4.2369   -2.0084   -1.6158 H   0  0  0  0  0  0  0  0  0  0  0  0
   -3.9869   -5.0294   -0.0092 H   0  0  0  0  0  0  0  0  0  0  0  0
   -4.1956   -4.3516   -1.6284 H   0  0  0  0  0  0  0  0  0  0  0  0
   -2.6553   -5.0983   -1.2007 H   0  0  0  0  0  0  0  0  0  0  0  0
   -2.1797   -4.9681    1.7479 H   0  0  0  0  0  0  0  0  0  0  0  0
   -0.8534   -4.9230    0.5491 H   0  0  0  0  0  0  0  0  0  0  0  0
   -0.6806   -4.1097    2.1082 H   0  0  0  0  0  0  0  0  0  0  0  0
   -0.7591   -1.7967    1.9107 H   0  0  0  0  0  0  0  0  0  0  0  0
  1  2  1  0
  2  3  1  0
  3  4  1  0
  4  5  1  0
  5  6  2  0
  6  7  1  0
  7  8  1  0
  8  9  2  0
  9 10  1  0
 10 11  1  0
 11 12  2  0
 12 13  1  0
 12 14  1  0
 14 15  2  0
 15 16  1  0
 16 17  2  0
 17 18  1  0
 18 19  2  0
 17 20  1  0
 20 21  1  0
 21 22  2  0
 22 23  1  0
 23 24  2  0
  9 25  1  0
 25 26  2  0
 26 27  1  0
 27 28  2  0
 28 29  1  0
 28 30  1  0
 30 31  1  0
 30 32  2  0
 10  6  1  0
 19 14  1  0
 24 20  1  0
 32 25  1  0
  1 33  1  0
  1 34  1  0
  1 35  1  0
  3 36  1  0
  3 37  1  0
  4 38  1  0
  4 39  1  0
  8 40  1  0
 13 41  1  0
 13 42  1  0
 13 43  1  0
 15 44  1  0
 16 45  1  0
 18 46  1  0
 19 47  1  0
 21 48  1  0
 22 49  1  0
 24 50  1  0
 26 51  1  0
 27 52  1  0
 29 53  1  0
 29 54  1  0
 29 55  1  0
 31 56  1  0
 31 57  1  0
 31 58  1  0
 32 59  1  0
M  END
>  <Unnamed: 0>  (106) 
687

>  <ID>  (106) 
TRAIN_0687

>  <Canonical_Smiles>  (106) 
COCC\N=C/1\SC=C(N1\N=C(\C)/c2ccc(cc2)n3ccnc3)c4ccc(C)c(C)c4

>  <Inhibition>  (106) 
98.869065

>  <TDC_conf_true_inhibitor>  (106) 
1

>  <TDC_conf_non_inhibitor>  (106) 
0

>  <split>  (106) 
1

$$$$
106
     RDKit          3D

 57 61  0  0  0  0  0  0  0  0999 V2000
   -3.6354    1.7036    1.0895 C   0  0  0  0  0  0  0  0  0  0  0  0
   -4.3626    0.9420   -0.0104 C   0  0  0  0  0  0  0  0  0  0  0  0
   -3.7965   -0.4707   -0.2771 C   0  0  0  0  0  0  0  0  0  0  0  0
   -4.7606   -1.2944   -1.1541 C   0  0  0  0  0  0  0  0  0  0  0  0
   -4.8063   -0.8023   -2.5981 C   0  0  0  0  0  0  0  0  0  0  0  0
   -3.4038   -0.7686   -3.1916 C   0  0  0  0  0  0  0  0  0  0  0  0
   -2.4320    0.0332   -2.3267 C   0  0  0  0  0  0  0  0  0  0  0  0
   -2.4699   -0.4468   -0.9385 N   0  0  0  0  0  0  0  0  0  0  0  0
   -1.3291   -0.3279   -0.1463 C   0  0  0  0  0  0  0  0  0  0  0  0
   -0.3136    0.5948   -0.4136 C   0  0  0  0  0  0  0  0  0  0  0  0
    0.8296    0.6979    0.3940 C   0  0  0  0  0  0  0  0  0  0  0  0
    1.0255   -0.1470    1.4892 C   0  0  0  0  0  0  0  0  0  0  0  0
    2.1858   -0.0709    2.3288 N   0  0  0  0  0  0  0  0  0  0  0  0
    2.0394   -0.6136    3.6790 C   0  0  0  0  0  0  0  0  0  0  0  0
    1.4473   -2.0106    3.6303 C   0  0  0  0  0  0  0  0  0  0  0  0
    0.0614   -1.9540    3.0117 C   0  0  0  0  0  0  0  0  0  0  0  0
    0.0067   -1.0668    1.7929 C   0  0  0  0  0  0  0  0  0  0  0  0
   -1.1400   -1.1482    0.9736 C   0  0  0  0  0  0  0  0  0  0  0  0
    3.3773    0.5987    2.0523 C   0  0  0  0  0  0  0  0  0  0  0  0
    4.0943    1.0756    2.9353 O   0  0  0  0  0  0  0  0  0  0  0  0
    3.8715    0.6182    0.6353 C   0  0  0  0  0  0  0  0  0  0  0  0
    3.8277   -0.5779   -0.2116 C   0  0  0  0  0  0  0  0  0  0  0  0
    4.3135   -0.5126   -1.4639 C   0  0  0  0  0  0  0  0  0  0  0  0
    4.8609    0.6846   -1.9158 N   0  0  0  0  0  0  0  0  0  0  0  0
    5.4074    1.0065   -3.1323 C   0  0  0  0  0  0  0  0  0  0  0  0
    5.8235    2.2546   -3.1750 N   0  0  0  0  0  0  0  0  0  0  0  0
    5.5444    2.7713   -1.9328 C   0  0  0  0  0  0  0  0  0  0  0  0
    4.9450    1.8261   -1.1331 C   0  0  0  0  0  0  0  0  0  0  0  0
    4.4414    1.7641    0.1965 C   0  0  0  0  0  0  0  0  0  0  0  0
   -4.1871    2.6164    1.3376 H   0  0  0  0  0  0  0  0  0  0  0  0
   -3.5525    1.1028    2.0004 H   0  0  0  0  0  0  0  0  0  0  0  0
   -2.6340    2.0068    0.7751 H   0  0  0  0  0  0  0  0  0  0  0  0
   -5.4114    0.8448    0.2982 H   0  0  0  0  0  0  0  0  0  0  0  0
   -4.3641    1.5543   -0.9182 H   0  0  0  0  0  0  0  0  0  0  0  0
   -3.7525   -0.9943    0.6849 H   0  0  0  0  0  0  0  0  0  0  0  0
   -5.7703   -1.2820   -0.7273 H   0  0  0  0  0  0  0  0  0  0  0  0
   -4.4325   -2.3425   -1.1515 H   0  0  0  0  0  0  0  0  0  0  0  0
   -5.4431   -1.4659   -3.1939 H   0  0  0  0  0  0  0  0  0  0  0  0
   -5.2563    0.1958   -2.6459 H   0  0  0  0  0  0  0  0  0  0  0  0
   -3.0339   -1.7975   -3.2889 H   0  0  0  0  0  0  0  0  0  0  0  0
   -3.4366   -0.3453   -4.2018 H   0  0  0  0  0  0  0  0  0  0  0  0
   -1.4346   -0.1004   -2.7639 H   0  0  0  0  0  0  0  0  0  0  0  0
   -2.6703    1.1021   -2.3715 H   0  0  0  0  0  0  0  0  0  0  0  0
   -0.4075    1.2964   -1.2381 H   0  0  0  0  0  0  0  0  0  0  0  0
    1.5256    1.4932    0.1514 H   0  0  0  0  0  0  0  0  0  0  0  0
    3.0142   -0.6631    4.1773 H   0  0  0  0  0  0  0  0  0  0  0  0
    1.4109    0.0741    4.2585 H   0  0  0  0  0  0  0  0  0  0  0  0
    2.0944   -2.6626    3.0291 H   0  0  0  0  0  0  0  0  0  0  0  0
    1.3923   -2.4434    4.6351 H   0  0  0  0  0  0  0  0  0  0  0  0
   -0.6495   -1.5607    3.7494 H   0  0  0  0  0  0  0  0  0  0  0  0
   -0.2559   -2.9714    2.7538 H   0  0  0  0  0  0  0  0  0  0  0  0
   -1.8889   -1.8995    1.2143 H   0  0  0  0  0  0  0  0  0  0  0  0
    3.4040   -1.4937    0.1870 H   0  0  0  0  0  0  0  0  0  0  0  0
    4.3073   -1.3525   -2.1468 H   0  0  0  0  0  0  0  0  0  0  0  0
    5.4731    0.2934   -3.9425 H   0  0  0  0  0  0  0  0  0  0  0  0
    5.7899    3.7959   -1.6846 H   0  0  0  0  0  0  0  0  0  0  0  0
    4.5163    2.6403    0.8352 H   0  0  0  0  0  0  0  0  0  0  0  0
  1  2  1  0
  2  3  1  0
  3  4  1  0
  4  5  1  0
  5  6  1  0
  6  7  1  0
  7  8  1  0
  8  9  1  0
  9 10  2  0
 10 11  1  0
 11 12  2  0
 12 13  1  0
 13 14  1  0
 14 15  1  0
 15 16  1  0
 16 17  1  0
 17 18  2  0
 13 19  1  0
 19 20  2  0
 19 21  1  0
 21 22  1  0
 22 23  2  0
 23 24  1  0
 24 25  1  0
 25 26  2  0
 26 27  1  0
 27 28  2  0
 28 29  1  0
  8  3  1  0
 18  9  1  0
 17 12  1  0
 29 21  2  0
 28 24  1  0
  1 30  1  0
  1 31  1  0
  1 32  1  0
  2 33  1  0
  2 34  1  0
  3 35  1  0
  4 36  1  0
  4 37  1  0
  5 38  1  0
  5 39  1  0
  6 40  1  0
  6 41  1  0
  7 42  1  0
  7 43  1  0
 10 44  1  0
 11 45  1  0
 14 46  1  0
 14 47  1  0
 15 48  1  0
 15 49  1  0
 16 50  1  0
 16 51  1  0
 18 52  1  0
 22 53  1  0
 23 54  1  0
 25 55  1  0
 27 56  1  0
 29 57  1  0
M  END
>  <Unnamed: 0>  (107) 
695

>  <ID>  (107) 
TRAIN_0695

>  <Canonical_Smiles>  (107) 
CCC1CCCCN1c2ccc3N(CCCc3c2)C(=O)c4ccn5cncc5c4

>  <Inhibition>  (107) 
85.780797

>  <TDC_conf_true_inhibitor>  (107) 
1

>  <TDC_conf_non_inhibitor>  (107) 
0

>  <split>  (107) 
1

$$$$
107
     RDKit          3D

 39 40  0  0  0  0  0  0  0  0999 V2000
    3.8729   -3.0557    0.0469 C   0  0  0  0  0  0  0  0  0  0  0  0
    3.8190   -2.2401    1.3003 C   0  0  0  0  0  0  0  0  0  0  0  0
    4.8134   -2.3240    2.3309 C   0  0  0  0  0  0  0  0  0  0  0  0
    4.5542   -1.4854    3.3866 C   0  0  0  0  0  0  0  0  0  0  0  0
    3.1203   -0.6003    3.1552 S   0  0  0  0  0  0  0  0  0  0  0  0
    2.8238   -1.3127    1.6100 C   0  0  0  0  0  0  0  0  0  0  0  0
    1.6655   -0.9874    0.8317 C   0  0  0  0  0  0  0  0  0  0  0  0
    1.0623    0.2139    0.8586 C   0  0  0  0  0  0  0  0  0  0  0  0
   -0.1095    0.6095    0.0767 C   0  0  0  0  0  0  0  0  0  0  0  0
   -0.5190    1.8943    0.1068 C   0  0  0  0  0  0  0  0  0  0  0  0
   -1.6552    2.4176   -0.6600 C   0  0  0  0  0  0  0  0  0  0  0  0
   -2.1588    3.6658   -0.4806 C   0  0  0  0  0  0  0  0  0  0  0  0
   -1.6332    4.5679    0.4913 C   0  0  0  0  0  0  0  0  0  0  0  0
   -1.1956    5.2950    1.2832 N   0  0  0  0  0  0  0  0  0  0  0  0
   -3.2479    4.1499   -1.2639 C   0  0  0  0  0  0  0  0  0  0  0  0
   -4.1339    4.5307   -1.9098 N   0  0  0  0  0  0  0  0  0  0  0  0
   -2.2115    1.4411   -1.6904 C   0  0  0  0  0  0  0  0  0  0  0  0
   -2.2603   -0.0158   -1.1816 C   0  0  0  0  0  0  0  0  0  0  0  0
   -2.7304   -0.9391   -2.3207 C   0  0  0  0  0  0  0  0  0  0  0  0
   -3.2599   -0.1536   -0.0129 C   0  0  0  0  0  0  0  0  0  0  0  0
   -0.8405   -0.4398   -0.7368 C   0  0  0  0  0  0  0  0  0  0  0  0
    3.0298   -3.7532    0.0097 H   0  0  0  0  0  0  0  0  0  0  0  0
    4.7971   -3.6402   -0.0075 H   0  0  0  0  0  0  0  0  0  0  0  0
    3.8334   -2.4087   -0.8355 H   0  0  0  0  0  0  0  0  0  0  0  0
    5.6794   -2.9745    2.2960 H   0  0  0  0  0  0  0  0  0  0  0  0
    5.1380   -1.3544    4.2872 H   0  0  0  0  0  0  0  0  0  0  0  0
    1.3060   -1.7649    0.1650 H   0  0  0  0  0  0  0  0  0  0  0  0
    1.4744    0.9951    1.4972 H   0  0  0  0  0  0  0  0  0  0  0  0
    0.0305    2.5975    0.7330 H   0  0  0  0  0  0  0  0  0  0  0  0
   -1.5708    1.4959   -2.5822 H   0  0  0  0  0  0  0  0  0  0  0  0
   -3.2173    1.7265   -2.0194 H   0  0  0  0  0  0  0  0  0  0  0  0
   -2.0651   -0.8700   -3.1887 H   0  0  0  0  0  0  0  0  0  0  0  0
   -2.7490   -1.9863   -1.9983 H   0  0  0  0  0  0  0  0  0  0  0  0
   -3.7396   -0.6731   -2.6546 H   0  0  0  0  0  0  0  0  0  0  0  0
   -2.9693    0.4391    0.8602 H   0  0  0  0  0  0  0  0  0  0  0  0
   -3.3370   -1.1967    0.3147 H   0  0  0  0  0  0  0  0  0  0  0  0
   -4.2617    0.1724   -0.3150 H   0  0  0  0  0  0  0  0  0  0  0  0
   -0.9285   -1.3720   -0.1638 H   0  0  0  0  0  0  0  0  0  0  0  0
   -0.2259   -0.6644   -1.6194 H   0  0  0  0  0  0  0  0  0  0  0  0
  1  2  1  0
  2  3  1  0
  3  4  2  0
  4  5  1  0
  5  6  1  0
  6  7  1  0
  7  8  2  0
  8  9  1  0
  9 10  2  0
 10 11  1  0
 11 12  2  3
 12 13  1  0
 13 14  3  0
 12 15  1  0
 15 16  3  0
 11 17  1  0
 17 18  1  0
 18 19  1  0
 18 20  1  0
 18 21  1  0
  6  2  2  0
 21  9  1  0
  1 22  1  0
  1 23  1  0
  1 24  1  0
  3 25  1  0
  4 26  1  0
  7 27  1  0
  8 28  1  0
 10 29  1  0
 17 30  1  0
 17 31  1  0
 19 32  1  0
 19 33  1  0
 19 34  1  0
 20 35  1  0
 20 36  1  0
 20 37  1  0
 21 38  1  0
 21 39  1  0
M  END
>  <Unnamed: 0>  (108) 
697

>  <ID>  (108) 
TRAIN_0697

>  <Canonical_Smiles>  (108) 
Cc1ccsc1\C=C\C2=CC(=C(C#N)C#N)CC(C)(C)C2

>  <Inhibition>  (108) 
42.932092

>  <TDC_conf_true_inhibitor>  (108) 
1

>  <TDC_conf_non_inhibitor>  (108) 
0

>  <split>  (108) 
1

$$$$
108
     RDKit          3D

 29 29  0  0  0  0  0  0  0  0999 V2000
   -5.6013   -0.9297    1.1546 F   0  0  0  0  0  0  0  0  0  0  0  0
   -5.3400    0.3975    1.0930 C   0  0  0  0  0  0  0  0  0  0  0  0
   -5.9446    0.8808   -0.0143 F   0  0  0  0  0  0  0  0  0  0  0  0
   -5.9119    0.9808    2.1675 F   0  0  0  0  0  0  0  0  0  0  0  0
   -3.8346    0.6459    1.0617 C   0  0  0  0  0  0  0  0  0  0  0  0
   -3.1225   -0.0446   -0.0191 N   0  0  0  0  0  0  0  0  0  0  0  0
   -1.8200    0.3000   -0.3141 C   0  0  0  0  0  0  0  0  0  0  0  0
   -1.2469    1.2521    0.2102 O   0  0  0  0  0  0  0  0  0  0  0  0
   -1.1497   -0.5949   -1.3620 C   0  0  0  0  0  0  0  0  0  0  0  0
    0.2692   -0.4590   -1.3525 O   0  0  0  0  0  0  0  0  0  0  0  0
    0.8453   -0.9977   -0.2592 C   0  0  0  0  0  0  0  0  0  0  0  0
    0.3216   -1.6488    0.6249 O   0  0  0  0  0  0  0  0  0  0  0  0
    2.3092   -0.6288   -0.2461 C   0  0  0  0  0  0  0  0  0  0  0  0
    3.1737   -1.4412   -0.7767 N   0  0  0  0  0  0  0  0  0  0  0  0
    4.4827   -1.0505   -0.7479 N   0  0  0  0  0  0  0  0  0  0  0  0
    5.0059   -0.0308    0.0112 C   0  0  0  0  0  0  0  0  0  0  0  0
    6.2019    0.2464   -0.0123 O   0  0  0  0  0  0  0  0  0  0  0  0
    4.0333    0.6607    0.9305 C   0  0  0  0  0  0  0  0  0  0  0  0
    2.6514    0.7156    0.3188 C   0  0  0  0  0  0  0  0  0  0  0  0
   -3.3874    0.3056    2.0023 H   0  0  0  0  0  0  0  0  0  0  0  0
   -3.6415    1.7208    0.9757 H   0  0  0  0  0  0  0  0  0  0  0  0
   -3.4259   -0.9871   -0.2435 H   0  0  0  0  0  0  0  0  0  0  0  0
   -1.4376   -1.6438   -1.2244 H   0  0  0  0  0  0  0  0  0  0  0  0
   -1.5056   -0.2756   -2.3470 H   0  0  0  0  0  0  0  0  0  0  0  0
    5.1370   -1.6051   -1.2931 H   0  0  0  0  0  0  0  0  0  0  0  0
    4.3909    1.6750    1.1358 H   0  0  0  0  0  0  0  0  0  0  0  0
    4.0171    0.1028    1.8739 H   0  0  0  0  0  0  0  0  0  0  0  0
    2.6185    1.4396   -0.5033 H   0  0  0  0  0  0  0  0  0  0  0  0
    1.9115    1.0139    1.0680 H   0  0  0  0  0  0  0  0  0  0  0  0
  1  2  1  0
  2  3  1  0
  2  4  1  0
  2  5  1  0
  5  6  1  0
  6  7  1  0
  7  8  2  0
  7  9  1  0
  9 10  1  0
 10 11  1  0
 11 12  2  0
 11 13  1  0
 13 14  2  0
 14 15  1  0
 15 16  1  0
 16 17  2  0
 16 18  1  0
 18 19  1  0
 19 13  1  0
  5 20  1  0
  5 21  1  0
  6 22  1  0
  9 23  1  0
  9 24  1  0
 15 25  1  0
 18 26  1  0
 18 27  1  0
 19 28  1  0
 19 29  1  0
M  END
>  <Unnamed: 0>  (109) 
699

>  <ID>  (109) 
TRAIN_0699

>  <Canonical_Smiles>  (109) 
FC(F)(F)CNC(=O)COC(=O)C1=NNC(=O)CC1

>  <Inhibition>  (109) 
0.5

>  <TDC_conf_true_inhibitor>  (109) 
0

>  <TDC_conf_non_inhibitor>  (109) 
1

>  <split>  (109) 
1

$$$$
109
     RDKit          3D

 39 41  0  0  0  0  0  0  0  0999 V2000
    2.8816    2.6828    0.2572 O   0  0  0  0  0  0  0  0  0  0  0  0
    3.2755    1.7140   -0.7444 C   0  0  0  0  0  0  0  0  0  0  0  0
    2.2198    0.5931   -0.7888 C   0  0  0  0  0  0  0  0  0  0  0  0
    2.0825   -0.0166    0.5449 N   0  0  0  0  0  0  0  0  0  0  0  0
    0.8859   -0.8721    0.7093 C   0  0  0  0  0  0  0  0  0  0  0  0
    0.9983   -1.6415    2.0414 C   0  0  0  0  0  0  0  0  0  0  0  0
    0.0487   -2.8286    1.8848 C   0  0  0  0  0  0  0  0  0  0  0  0
   -0.0121   -3.1176    0.3854 C   0  0  0  0  0  0  0  0  0  0  0  0
    0.8530   -2.0482   -0.2861 C   0  0  0  0  0  0  0  0  0  0  0  0
   -0.3742   -0.0171    0.6823 C   0  0  0  0  0  0  0  0  0  0  0  0
   -0.5408    1.0376    1.4975 N   0  0  0  0  0  0  0  0  0  0  0  0
   -1.7850    1.5427    1.1178 O   0  0  0  0  0  0  0  0  0  0  0  0
   -2.2377    0.7490    0.1021 C   0  0  0  0  0  0  0  0  0  0  0  0
   -1.4024   -0.2147   -0.2103 N   0  0  0  0  0  0  0  0  0  0  0  0
   -3.5827    0.9732   -0.6413 C   0  0  0  0  0  0  0  0  0  0  0  0
   -4.7477    1.5928    0.0810 C   0  0  0  0  0  0  0  0  0  0  0  0
   -4.7749    0.1334   -0.2677 C   0  0  0  0  0  0  0  0  0  0  0  0
    3.4284    2.3364   -2.1354 C   0  0  0  0  0  0  0  0  0  0  0  0
    4.3890    3.2860   -2.1497 F   0  0  0  0  0  0  0  0  0  0  0  0
    3.7563    1.4111   -3.0619 F   0  0  0  0  0  0  0  0  0  0  0  0
    2.2704    2.9181   -2.5310 F   0  0  0  0  0  0  0  0  0  0  0  0
    2.0440    3.0830   -0.0372 H   0  0  0  0  0  0  0  0  0  0  0  0
    4.2422    1.3071   -0.4266 H   0  0  0  0  0  0  0  0  0  0  0  0
    1.2663    1.0269   -1.1117 H   0  0  0  0  0  0  0  0  0  0  0  0
    2.5154   -0.1687   -1.5180 H   0  0  0  0  0  0  0  0  0  0  0  0
    2.0404    0.7344    1.2450 H   0  0  0  0  0  0  0  0  0  0  0  0
    0.7529   -1.0393    2.9245 H   0  0  0  0  0  0  0  0  0  0  0  0
    2.0184   -2.0257    2.1828 H   0  0  0  0  0  0  0  0  0  0  0  0
    0.3960   -3.6977    2.4528 H   0  0  0  0  0  0  0  0  0  0  0  0
   -0.9505   -2.5746    2.2590 H   0  0  0  0  0  0  0  0  0  0  0  0
   -1.0487   -3.0574    0.0331 H   0  0  0  0  0  0  0  0  0  0  0  0
    0.3533   -4.1237    0.1508 H   0  0  0  0  0  0  0  0  0  0  0  0
    0.4698   -1.7825   -1.2780 H   0  0  0  0  0  0  0  0  0  0  0  0
    1.8621   -2.4601   -0.4278 H   0  0  0  0  0  0  0  0  0  0  0  0
   -3.4625    1.2299   -1.6853 H   0  0  0  0  0  0  0  0  0  0  0  0
   -5.3875    2.2608   -0.4822 H   0  0  0  0  0  0  0  0  0  0  0  0
   -4.6429    1.8510    1.1263 H   0  0  0  0  0  0  0  0  0  0  0  0
   -4.6715   -0.5855    0.5389 H   0  0  0  0  0  0  0  0  0  0  0  0
   -5.4289   -0.1918   -1.0693 H   0  0  0  0  0  0  0  0  0  0  0  0
  1  2  1  0
  2  3  1  0
  3  4  1  0
  4  5  1  0
  5  6  1  0
  6  7  1  0
  7  8  1  0
  8  9  1  0
  5 10  1  0
 10 11  2  0
 11 12  1  0
 12 13  1  0
 13 14  2  0
 13 15  1  0
 15 16  1  0
 16 17  1  0
  2 18  1  0
 18 19  1  0
 18 20  1  0
 18 21  1  0
  9  5  1  0
 14 10  1  0
 17 15  1  0
  1 22  1  0
  2 23  1  0
  3 24  1  0
  3 25  1  0
  4 26  1  0
  6 27  1  0
  6 28  1  0
  7 29  1  0
  7 30  1  0
  8 31  1  0
  8 32  1  0
  9 33  1  0
  9 34  1  0
 15 35  1  0
 16 36  1  0
 16 37  1  0
 17 38  1  0
 17 39  1  0
M  END
>  <Unnamed: 0>  (110) 
704

>  <ID>  (110) 
TRAIN_0704

>  <Canonical_Smiles>  (110) 
OC(CNC1(CCCC1)c2noc(n2)C3CC3)C(F)(F)F

>  <Inhibition>  (110) 
3.052308

>  <TDC_conf_true_inhibitor>  (110) 
0

>  <TDC_conf_non_inhibitor>  (110) 
1

>  <split>  (110) 
1

$$$$
110
     RDKit          3D

 40 42  0  0  0  0  0  0  0  0999 V2000
   -5.1974    0.9042    1.0933 C   0  0  0  0  0  0  0  0  0  0  0  0
   -3.9052    0.2124    0.7446 C   0  0  0  0  0  0  0  0  0  0  0  0
   -3.6812   -1.0956    1.2074 C   0  0  0  0  0  0  0  0  0  0  0  0
   -2.4995   -1.7918    0.9059 C   0  0  0  0  0  0  0  0  0  0  0  0
   -2.3099   -3.1884    1.4324 C   0  0  0  0  0  0  0  0  0  0  0  0
   -1.5260   -1.1494    0.1263 C   0  0  0  0  0  0  0  0  0  0  0  0
   -1.7314    0.1594   -0.3286 C   0  0  0  0  0  0  0  0  0  0  0  0
   -2.9214    0.8458   -0.0365 C   0  0  0  0  0  0  0  0  0  0  0  0
   -3.0983    2.2561   -0.5335 C   0  0  0  0  0  0  0  0  0  0  0  0
   -0.2566   -1.8369   -0.2258 C   0  0  0  0  0  0  0  0  0  0  0  0
    0.4329   -2.3079    0.6751 O   0  0  0  0  0  0  0  0  0  0  0  0
    0.0522   -1.9804   -1.7077 C   0  0  0  0  0  0  0  0  0  0  0  0
    1.8171   -2.2347   -2.0266 S   0  0  0  0  0  0  0  0  0  0  0  0
    2.4563   -0.7839   -1.3049 C   0  0  0  0  0  0  0  0  0  0  0  0
    1.7727    0.3242   -1.2296 N   0  0  0  0  0  0  0  0  0  0  0  0
    2.6471    1.1762   -0.6614 N   0  0  0  0  0  0  0  0  0  0  0  0
    3.7844    0.5025   -0.3098 C   0  0  0  0  0  0  0  0  0  0  0  0
    4.8238    0.9184    0.4320 C   0  0  0  0  0  0  0  0  0  0  0  0
    4.9991    2.2289    1.0168 C   0  0  0  0  0  0  0  0  0  0  0  0
    6.1465    2.2867    1.6942 C   0  0  0  0  0  0  0  0  0  0  0  0
    6.6644    0.9362    1.4836 C   0  0  0  0  0  0  0  0  0  0  0  0
    5.9217    0.1543    0.7657 N   0  0  0  0  0  0  0  0  0  0  0  0
    3.7383   -0.7998   -0.8082 O   0  0  0  0  0  0  0  0  0  0  0  0
   -5.8032    0.3025    1.7780 H   0  0  0  0  0  0  0  0  0  0  0  0
   -5.0002    1.8608    1.5886 H   0  0  0  0  0  0  0  0  0  0  0  0
   -5.7899    1.0747    0.1885 H   0  0  0  0  0  0  0  0  0  0  0  0
   -4.4426   -1.5813    1.8165 H   0  0  0  0  0  0  0  0  0  0  0  0
   -1.5335   -3.2057    2.2037 H   0  0  0  0  0  0  0  0  0  0  0  0
   -3.2324   -3.5737    1.8833 H   0  0  0  0  0  0  0  0  0  0  0  0
   -2.0398   -3.8713    0.6220 H   0  0  0  0  0  0  0  0  0  0  0  0
   -0.9516    0.6616   -0.8990 H   0  0  0  0  0  0  0  0  0  0  0  0
   -2.3032    2.5378   -1.2325 H   0  0  0  0  0  0  0  0  0  0  0  0
   -3.0710    2.9572    0.3060 H   0  0  0  0  0  0  0  0  0  0  0  0
   -4.0486    2.3620   -1.0679 H   0  0  0  0  0  0  0  0  0  0  0  0
   -0.2941   -1.1168   -2.2817 H   0  0  0  0  0  0  0  0  0  0  0  0
   -0.4861   -2.8610   -2.0714 H   0  0  0  0  0  0  0  0  0  0  0  0
    2.3340    1.9393   -0.0677 H   0  0  0  0  0  0  0  0  0  0  0  0
    4.2995    3.0434    0.9100 H   0  0  0  0  0  0  0  0  0  0  0  0
    6.6029    3.0850    2.2446 H   0  0  0  0  0  0  0  0  0  0  0  0
    7.6301    0.6490    1.9252 H   0  0  0  0  0  0  0  0  0  0  0  0
  1  2  1  0
  2  3  2  0
  3  4  1  0
  4  5  1  0
  4  6  2  0
  6  7  1  0
  7  8  2  0
  8  9  1  0
  6 10  1  0
 10 11  2  0
 10 12  1  0
 12 13  1  0
 13 14  1  0
 14 15  2  0
 15 16  1  0
 16 17  1  0
 17 18  2  0
 18 19  1  0
 19 20  2  0
 20 21  1  0
 21 22  2  0
 17 23  1  0
  8  2  1  0
 23 14  1  0
 22 18  1  0
  1 24  1  0
  1 25  1  0
  1 26  1  0
  3 27  1  0
  5 28  1  0
  5 29  1  0
  5 30  1  0
  7 31  1  0
  9 32  1  0
  9 33  1  0
  9 34  1  0
 12 35  1  0
 12 36  1  0
 16 37  1  0
 19 38  1  0
 20 39  1  0
 21 40  1  0
M  END
>  <Unnamed: 0>  (111) 
708

>  <ID>  (111) 
TRAIN_0708

>  <Canonical_Smiles>  (111) 
Cc1cc(C)c(cc1C)C(=O)CSC2=NN\C(=C\3/C=CC=N3)\O2

>  <Inhibition>  (111) 
47.08059

>  <TDC_conf_true_inhibitor>  (111) 
1

>  <TDC_conf_non_inhibitor>  (111) 
0

>  <split>  (111) 
1

$$$$
111
     RDKit          3D

 56 60  0  0  0  0  0  0  0  0999 V2000
   -4.0851   -1.9692    2.9031 C   0  0  0  0  0  0  0  0  0  0  0  0
   -4.5769   -1.0754    1.8708 N   0  0  0  0  0  0  0  0  0  0  0  0
   -3.6297   -0.6106    0.9918 N   0  0  0  0  0  0  0  0  0  0  0  0
   -4.0060    0.1670    0.0170 C   0  0  0  0  0  0  0  0  0  0  0  0
   -2.8897    0.6427   -0.9029 C   0  0  0  0  0  0  0  0  0  0  0  0
   -3.0244    0.5887   -2.1143 O   0  0  0  0  0  0  0  0  0  0  0  0
   -1.8028    1.0940   -0.1950 N   0  0  0  0  0  0  0  0  0  0  0  0
   -0.6360    1.2632   -0.8411 N   0  0  0  0  0  0  0  0  0  0  0  0
   -0.2430    2.4567   -1.3785 C   0  0  0  0  0  0  0  0  0  0  0  0
   -1.1226    3.6493   -1.4643 C   0  0  0  0  0  0  0  0  0  0  0  0
    1.0658    2.2832   -1.7904 C   0  0  0  0  0  0  0  0  0  0  0  0
    1.4630    0.9638   -1.4390 C   0  0  0  0  0  0  0  0  0  0  0  0
    0.3747    0.3392   -0.8466 C   0  0  0  0  0  0  0  0  0  0  0  0
    0.2243   -1.0342   -0.2912 C   0  0  0  0  0  0  0  0  0  0  0  0
    2.8126    0.4313   -1.6584 C   0  0  0  0  0  0  0  0  0  0  0  0
    3.7196    0.8749   -2.5951 C   0  0  0  0  0  0  0  0  0  0  0  0
    5.1722   -0.0188   -2.4638 S   0  0  0  0  0  0  0  0  0  0  0  0
    4.5103   -0.8996   -1.1313 C   0  0  0  0  0  0  0  0  0  0  0  0
    5.1654   -1.8917   -0.4777 N   0  0  0  0  0  0  0  0  0  0  0  0
    6.4959   -1.8810   -0.0027 C   0  0  0  0  0  0  0  0  0  0  0  0
    7.2688   -0.7219    0.1404 C   0  0  0  0  0  0  0  0  0  0  0  0
    8.5860   -0.7862    0.6091 C   0  0  0  0  0  0  0  0  0  0  0  0
    9.1506   -2.0146    0.9416 C   0  0  0  0  0  0  0  0  0  0  0  0
    8.3979   -3.1793    0.8077 C   0  0  0  0  0  0  0  0  0  0  0  0
    7.0816   -3.1103    0.3406 C   0  0  0  0  0  0  0  0  0  0  0  0
    3.2596   -0.5999   -0.8535 N   0  0  0  0  0  0  0  0  0  0  0  0
   -5.3916    0.6156   -0.1880 C   0  0  0  0  0  0  0  0  0  0  0  0
   -5.7743    1.5052   -1.1987 C   0  0  0  0  0  0  0  0  0  0  0  0
   -7.1074    1.9151   -1.3014 C   0  0  0  0  0  0  0  0  0  0  0  0
   -8.0573    1.4426   -0.3977 C   0  0  0  0  0  0  0  0  0  0  0  0
   -7.6777    0.5568    0.6092 C   0  0  0  0  0  0  0  0  0  0  0  0
   -6.3420    0.1457    0.7130 C   0  0  0  0  0  0  0  0  0  0  0  0
   -5.9351   -0.7712    1.7947 C   0  0  0  0  0  0  0  0  0  0  0  0
   -6.7861   -1.2045    2.5672 O   0  0  0  0  0  0  0  0  0  0  0  0
   -3.2632   -1.4777    3.4292 H   0  0  0  0  0  0  0  0  0  0  0  0
   -4.8672   -2.2257    3.6194 H   0  0  0  0  0  0  0  0  0  0  0  0
   -3.7187   -2.8833    2.4283 H   0  0  0  0  0  0  0  0  0  0  0  0
   -1.7215    0.8214    0.7763 H   0  0  0  0  0  0  0  0  0  0  0  0
   -1.4400    3.9676   -0.4658 H   0  0  0  0  0  0  0  0  0  0  0  0
   -2.0112    3.4353   -2.0660 H   0  0  0  0  0  0  0  0  0  0  0  0
   -0.5951    4.4886   -1.9321 H   0  0  0  0  0  0  0  0  0  0  0  0
    1.6737    3.0450   -2.2611 H   0  0  0  0  0  0  0  0  0  0  0  0
    0.3877   -1.0212    0.7924 H   0  0  0  0  0  0  0  0  0  0  0  0
   -0.7738   -1.4389   -0.4847 H   0  0  0  0  0  0  0  0  0  0  0  0
    0.9387   -1.7327   -0.7386 H   0  0  0  0  0  0  0  0  0  0  0  0
    3.6035    1.6504   -3.3357 H   0  0  0  0  0  0  0  0  0  0  0  0
    4.5654   -2.4087    0.1568 H   0  0  0  0  0  0  0  0  0  0  0  0
    6.8538    0.2609   -0.0759 H   0  0  0  0  0  0  0  0  0  0  0  0
    9.1665    0.1260    0.7173 H   0  0  0  0  0  0  0  0  0  0  0  0
   10.1753   -2.0640    1.3043 H   0  0  0  0  0  0  0  0  0  0  0  0
    8.8337   -4.1400    1.0627 H   0  0  0  0  0  0  0  0  0  0  0  0
    6.5146   -4.0324    0.2305 H   0  0  0  0  0  0  0  0  0  0  0  0
   -5.0632    1.8965   -1.9216 H   0  0  0  0  0  0  0  0  0  0  0  0
   -7.4031    2.6071   -2.0879 H   0  0  0  0  0  0  0  0  0  0  0  0
   -9.0937    1.7665   -0.4757 H   0  0  0  0  0  0  0  0  0  0  0  0
   -8.4229    0.1925    1.3147 H   0  0  0  0  0  0  0  0  0  0  0  0
  1  2  1  0
  2  3  1  0
  3  4  2  0
  4  5  1  0
  5  6  2  0
  5  7  1  0
  7  8  1  0
  8  9  1  0
  9 10  1  0
  9 11  2  0
 11 12  1  0
 12 13  2  0
 13 14  1  0
 12 15  1  0
 15 16  2  0
 16 17  1  0
 17 18  1  0
 18 19  1  0
 19 20  1  0
 20 21  2  0
 21 22  1  0
 22 23  2  0
 23 24  1  0
 24 25  2  0
 18 26  2  0
  4 27  1  0
 27 28  2  0
 28 29  1  0
 29 30  2  0
 30 31  1  0
 31 32  2  0
 32 33  1  0
 33 34  2  0
 33  2  1  0
 13  8  1  0
 26 15  1  0
 25 20  1  0
 32 27  1  0
  1 35  1  0
  1 36  1  0
  1 37  1  0
  7 38  1  0
 10 39  1  0
 10 40  1  0
 10 41  1  0
 11 42  1  0
 14 43  1  0
 14 44  1  0
 14 45  1  0
 16 46  1  0
 19 47  1  0
 21 48  1  0
 22 49  1  0
 23 50  1  0
 24 51  1  0
 25 52  1  0
 28 53  1  0
 29 54  1  0
 30 55  1  0
 31 56  1  0
M  END
>  <Unnamed: 0>  (112) 
709

>  <ID>  (112) 
TRAIN_0709

>  <Canonical_Smiles>  (112) 
CN1N=C(C(=O)Nn2c(C)cc(c2C)c3csc(Nc4ccccc4)n3)c5ccccc5C1=O

>  <Inhibition>  (112) 
68.043709

>  <TDC_conf_true_inhibitor>  (112) 
1

>  <TDC_conf_non_inhibitor>  (112) 
0

>  <split>  (112) 
1

$$$$
112
     RDKit          3D

 41 43  0  0  0  0  0  0  0  0999 V2000
    7.3746    0.1680    1.3689 F   0  0  0  0  0  0  0  0  0  0  0  0
    6.6136   -0.9170    1.0432 C   0  0  0  0  0  0  0  0  0  0  0  0
    7.4519   -1.7669    0.3817 F   0  0  0  0  0  0  0  0  0  0  0  0
    5.4028   -0.5432    0.2222 C   0  0  0  0  0  0  0  0  0  0  0  0
    5.5727    0.0751   -0.9995 C   0  0  0  0  0  0  0  0  0  0  0  0
    4.4203    0.4002   -1.6683 C   0  0  0  0  0  0  0  0  0  0  0  0
    3.1897    0.1475   -1.1907 N   0  0  0  0  0  0  0  0  0  0  0  0
    3.1102   -0.4606   -0.0004 C   0  0  0  0  0  0  0  0  0  0  0  0
    1.8761   -0.7351    0.5688 N   0  0  0  0  0  0  0  0  0  0  0  0
    0.8695   -1.1336   -0.4019 C   0  0  0  0  0  0  0  0  0  0  0  0
   -0.4327   -1.5280    0.2321 C   0  0  0  0  0  0  0  0  0  0  0  0
   -0.9135   -2.7578    0.2966 N   0  0  0  0  0  0  0  0  0  0  0  0
   -2.1026   -2.6628    0.9668 C   0  0  0  0  0  0  0  0  0  0  0  0
   -2.3555   -1.3624    1.3241 C   0  0  0  0  0  0  0  0  0  0  0  0
   -1.2913   -0.6436    0.8475 N   0  0  0  0  0  0  0  0  0  0  0  0
   -1.1132    0.7860    1.0236 C   0  0  0  0  0  0  0  0  0  0  0  0
   -1.5773    1.6216   -0.1735 C   0  0  0  0  0  0  0  0  0  0  0  0
   -3.0714    1.5858   -0.3908 C   0  0  0  0  0  0  0  0  0  0  0  0
   -3.6155    0.8084   -1.4238 C   0  0  0  0  0  0  0  0  0  0  0  0
   -4.9976    0.7534   -1.6127 C   0  0  0  0  0  0  0  0  0  0  0  0
   -5.8476    1.4694   -0.7697 C   0  0  0  0  0  0  0  0  0  0  0  0
   -5.3170    2.2446    0.2609 C   0  0  0  0  0  0  0  0  0  0  0  0
   -3.9345    2.3040    0.4498 C   0  0  0  0  0  0  0  0  0  0  0  0
    4.1736   -0.8216    0.7256 N   0  0  0  0  0  0  0  0  0  0  0  0
    6.3147   -1.4045    1.9756 H   0  0  0  0  0  0  0  0  0  0  0  0
    6.5528    0.2995   -1.4037 H   0  0  0  0  0  0  0  0  0  0  0  0
    4.4518    0.8871   -2.6383 H   0  0  0  0  0  0  0  0  0  0  0  0
    2.0482   -1.4521    1.2665 H   0  0  0  0  0  0  0  0  0  0  0  0
    1.2311   -1.9945   -0.9783 H   0  0  0  0  0  0  0  0  0  0  0  0
    0.6739   -0.3267   -1.1181 H   0  0  0  0  0  0  0  0  0  0  0  0
   -2.7139   -3.5336    1.1597 H   0  0  0  0  0  0  0  0  0  0  0  0
   -3.1807   -0.9049    1.8524 H   0  0  0  0  0  0  0  0  0  0  0  0
   -0.0528    0.9692    1.2168 H   0  0  0  0  0  0  0  0  0  0  0  0
   -1.6491    1.0713    1.9367 H   0  0  0  0  0  0  0  0  0  0  0  0
   -1.2781    2.6661   -0.0195 H   0  0  0  0  0  0  0  0  0  0  0  0
   -1.0633    1.3007   -1.0882 H   0  0  0  0  0  0  0  0  0  0  0  0
   -2.9685    0.2332   -2.0843 H   0  0  0  0  0  0  0  0  0  0  0  0
   -5.4095    0.1468   -2.4161 H   0  0  0  0  0  0  0  0  0  0  0  0
   -6.9229    1.4242   -0.9172 H   0  0  0  0  0  0  0  0  0  0  0  0
   -5.9810    2.8015    0.9182 H   0  0  0  0  0  0  0  0  0  0  0  0
   -3.5380    2.9158    1.2575 H   0  0  0  0  0  0  0  0  0  0  0  0
  1  2  1  0
  2  3  1  0
  2  4  1  0
  4  5  2  0
  5  6  1  0
  6  7  2  0
  7  8  1  0
  8  9  1  0
  9 10  1  0
 10 11  1  0
 11 12  2  0
 12 13  1  0
 13 14  2  0
 14 15  1  0
 15 16  1  0
 16 17  1  0
 17 18  1  0
 18 19  2  0
 19 20  1  0
 20 21  2  0
 21 22  1  0
 22 23  2  0
  8 24  2  0
 24  4  1  0
 15 11  1  0
 23 18  1  0
  2 25  1  0
  5 26  1  0
  6 27  1  0
  9 28  1  0
 10 29  1  0
 10 30  1  0
 13 31  1  0
 14 32  1  0
 16 33  1  0
 16 34  1  0
 17 35  1  0
 17 36  1  0
 19 37  1  0
 20 38  1  0
 21 39  1  0
 22 40  1  0
 23 41  1  0
M  END
>  <Unnamed: 0>  (113) 
713

>  <ID>  (113) 
TRAIN_0713

>  <Canonical_Smiles>  (113) 
FC(F)c1ccnc(NCc2nccn2CCc3ccccc3)n1

>  <Inhibition>  (113) 
43.819815

>  <TDC_conf_true_inhibitor>  (113) 
0

>  <TDC_conf_non_inhibitor>  (113) 
1

>  <split>  (113) 
1

$$$$
113
     RDKit          3D

 37 43  0  0  0  0  0  0  0  0999 V2000
    1.1679   -0.5880   -1.5634 C   0  0  0  0  0  0  0  0  0  0  0  0
    2.1675    0.0414   -0.6254 C   0  0  0  0  0  0  0  0  0  0  0  0
    2.7979   -0.7221    0.3662 C   0  0  0  0  0  0  0  0  0  0  0  0
    3.7074   -0.1309    1.2444 C   0  0  0  0  0  0  0  0  0  0  0  0
    3.9985    1.2275    1.1384 C   0  0  0  0  0  0  0  0  0  0  0  0
    3.3830    1.9954    0.1523 C   0  0  0  0  0  0  0  0  0  0  0  0
    2.4730    1.4058   -0.7263 C   0  0  0  0  0  0  0  0  0  0  0  0
   -0.2658   -0.6323   -1.0590 C   0  0  0  0  0  0  0  0  0  0  0  0
   -1.1745   -1.1380   -2.0628 O   0  0  0  0  0  0  0  0  0  0  0  0
   -2.3762   -1.1143   -1.2823 C   0  0  0  0  0  0  0  0  0  0  0  0
   -2.4397    0.3293   -0.7915 C   0  0  0  0  0  0  0  0  0  0  0  0
   -2.9557    0.2942    0.6532 C   0  0  0  0  0  0  0  0  0  0  0  0
   -2.1270    1.3677    1.3498 C   0  0  0  0  0  0  0  0  0  0  0  0
   -0.7834    0.8023    0.8972 C   0  0  0  0  0  0  0  0  0  0  0  0
   -0.8481   -0.6669    1.3528 C   0  0  0  0  0  0  0  0  0  0  0  0
   -2.3490   -1.0154    1.1875 C   0  0  0  0  0  0  0  0  0  0  0  0
   -2.0080   -1.8973   -0.0224 C   0  0  0  0  0  0  0  0  0  0  0  0
   -0.5101   -1.5564    0.1424 C   0  0  0  0  0  0  0  0  0  0  0  0
   -0.9362    0.6791   -0.6283 C   0  0  0  0  0  0  0  0  0  0  0  0
    1.1953   -0.0578   -2.5252 H   0  0  0  0  0  0  0  0  0  0  0  0
    1.5016   -1.6052   -1.8101 H   0  0  0  0  0  0  0  0  0  0  0  0
    2.5877   -1.7850    0.4599 H   0  0  0  0  0  0  0  0  0  0  0  0
    4.1912   -0.7317    2.0100 H   0  0  0  0  0  0  0  0  0  0  0  0
    4.7080    1.6867    1.8216 H   0  0  0  0  0  0  0  0  0  0  0  0
    3.6122    3.0543    0.0662 H   0  0  0  0  0  0  0  0  0  0  0  0
    2.0010    2.0195   -1.4906 H   0  0  0  0  0  0  0  0  0  0  0  0
   -3.2585   -1.4769   -1.8134 H   0  0  0  0  0  0  0  0  0  0  0  0
   -2.9477    1.0291   -1.4598 H   0  0  0  0  0  0  0  0  0  0  0  0
   -4.0400    0.3583    0.7572 H   0  0  0  0  0  0  0  0  0  0  0  0
   -2.3189    2.3745    0.9667 H   0  0  0  0  0  0  0  0  0  0  0  0
   -2.2439    1.3455    2.4381 H   0  0  0  0  0  0  0  0  0  0  0  0
    0.1053    1.3355    1.2365 H   0  0  0  0  0  0  0  0  0  0  0  0
   -0.4019   -0.9289    2.3140 H   0  0  0  0  0  0  0  0  0  0  0  0
   -2.8231   -1.4934    2.0467 H   0  0  0  0  0  0  0  0  0  0  0  0
   -2.2636   -2.9568    0.0295 H   0  0  0  0  0  0  0  0  0  0  0  0
    0.1399   -2.4177    0.3067 H   0  0  0  0  0  0  0  0  0  0  0  0
   -0.6662    1.5687   -1.2031 H   0  0  0  0  0  0  0  0  0  0  0  0
  1  2  1  0
  2  3  2  0
  3  4  1  0
  4  5  2  0
  5  6  1  0
  6  7  2  0
  1  8  1  0
  8  9  1  0
  9 10  1  0
 10 11  1  0
 11 12  1  0
 12 13  1  0
 13 14  1  0
 14 15  1  0
 15 16  1  0
 16 17  1  0
 17 18  1  0
 14 19  1  0
  7  2  1  0
 18  8  1  0
 19  8  1  0
 17 10  1  0
 19 11  1  0
 16 12  1  0
 18 15  1  0
  1 20  1  0
  1 21  1  0
  3 22  1  0
  4 23  1  0
  5 24  1  0
  6 25  1  0
  7 26  1  0
 10 27  1  0
 11 28  1  0
 12 29  1  0
 13 30  1  0
 13 31  1  0
 14 32  1  0
 15 33  1  0
 16 34  1  0
 17 35  1  0
 18 36  1  0
 19 37  1  0
M  END
>  <Unnamed: 0>  (114) 
716

>  <ID>  (114) 
TRAIN_0716

>  <Canonical_Smiles>  (114) 
C(c1ccccc1)C23OC4C5C6CC(C7C6C4C27)C35

>  <Inhibition>  (114) 
7.562149

>  <TDC_conf_true_inhibitor>  (114) 
0

>  <TDC_conf_non_inhibitor>  (114) 
1

>  <split>  (114) 
1

$$$$
114
     RDKit          3D

 37 39  0  0  0  0  0  0  0  0999 V2000
    4.5631   -1.4472    0.7495 C   0  0  0  0  0  0  0  0  0  0  0  0
    3.2128   -0.8987    0.3971 C   0  0  0  0  0  0  0  0  0  0  0  0
    2.1650   -1.6541    0.7844 N   0  0  0  0  0  0  0  0  0  0  0  0
    0.8904   -1.2511    0.5095 N   0  0  0  0  0  0  0  0  0  0  0  0
    0.6502   -0.0980   -0.1496 C   0  0  0  0  0  0  0  0  0  0  0  0
   -0.6883    0.2784   -0.4541 N   0  0  0  0  0  0  0  0  0  0  0  0
   -1.8286   -0.1798    0.1203 C   0  0  0  0  0  0  0  0  0  0  0  0
   -2.0950   -0.5360    1.4703 C   0  0  0  0  0  0  0  0  0  0  0  0
   -1.1990   -0.5084    2.6529 C   0  0  0  0  0  0  0  0  0  0  0  0
   -3.3721   -0.9117    1.6300 N   0  0  0  0  0  0  0  0  0  0  0  0
   -3.9048   -0.8031    0.4029 N   0  0  0  0  0  0  0  0  0  0  0  0
   -5.2921   -1.1586    0.2126 C   0  0  0  0  0  0  0  0  0  0  0  0
   -3.0318   -0.3234   -0.5415 C   0  0  0  0  0  0  0  0  0  0  0  0
   -3.4302   -0.0824   -1.9504 C   0  0  0  0  0  0  0  0  0  0  0  0
    1.7171    0.7370   -0.5570 C   0  0  0  0  0  0  0  0  0  0  0  0
    1.5305    1.9801   -1.2147 C   0  0  0  0  0  0  0  0  0  0  0  0
    2.6086    2.7728   -1.6099 C   0  0  0  0  0  0  0  0  0  0  0  0
    3.9033    2.3486   -1.3542 C   0  0  0  0  0  0  0  0  0  0  0  0
    4.1171    1.1378   -0.6957 C   0  0  0  0  0  0  0  0  0  0  0  0
    3.0392    0.3177   -0.2823 C   0  0  0  0  0  0  0  0  0  0  0  0
    4.4702   -2.4044    1.2740 H   0  0  0  0  0  0  0  0  0  0  0  0
    5.1544   -1.6207   -0.1550 H   0  0  0  0  0  0  0  0  0  0  0  0
    5.0965   -0.7570    1.4104 H   0  0  0  0  0  0  0  0  0  0  0  0
   -0.7285    0.4771   -1.4478 H   0  0  0  0  0  0  0  0  0  0  0  0
   -1.7688   -0.3353    3.5724 H   0  0  0  0  0  0  0  0  0  0  0  0
   -0.6746   -1.4628    2.7588 H   0  0  0  0  0  0  0  0  0  0  0  0
   -0.4607    0.2953    2.5745 H   0  0  0  0  0  0  0  0  0  0  0  0
   -5.8723   -0.2360    0.1357 H   0  0  0  0  0  0  0  0  0  0  0  0
   -5.3833   -1.7508   -0.7011 H   0  0  0  0  0  0  0  0  0  0  0  0
   -5.6367   -1.7503    1.0650 H   0  0  0  0  0  0  0  0  0  0  0  0
   -4.3767    0.4655   -2.0027 H   0  0  0  0  0  0  0  0  0  0  0  0
   -2.6821    0.5102   -2.4852 H   0  0  0  0  0  0  0  0  0  0  0  0
   -3.5493   -1.0328   -2.4803 H   0  0  0  0  0  0  0  0  0  0  0  0
    0.5281    2.3568   -1.4098 H   0  0  0  0  0  0  0  0  0  0  0  0
    2.4330    3.7224   -2.1092 H   0  0  0  0  0  0  0  0  0  0  0  0
    4.7489    2.9612   -1.6571 H   0  0  0  0  0  0  0  0  0  0  0  0
    5.1464    0.8420   -0.5029 H   0  0  0  0  0  0  0  0  0  0  0  0
  1  2  1  0
  2  3  2  0
  3  4  1  0
  4  5  2  0
  5  6  1  0
  6  7  1  0
  7  8  1  0
  8  9  1  0
  8 10  2  0
 10 11  1  0
 11 12  1  0
 11 13  1  0
 13 14  1  0
  5 15  1  0
 15 16  2  0
 16 17  1  0
 17 18  2  0
 18 19  1  0
 19 20  2  0
 20  2  1  0
 13  7  2  0
 20 15  1  0
  1 21  1  0
  1 22  1  0
  1 23  1  0
  6 24  1  0
  9 25  1  0
  9 26  1  0
  9 27  1  0
 12 28  1  0
 12 29  1  0
 12 30  1  0
 14 31  1  0
 14 32  1  0
 14 33  1  0
 16 34  1  0
 17 35  1  0
 18 36  1  0
 19 37  1  0
M  END
>  <Unnamed: 0>  (115) 
728

>  <ID>  (115) 
TRAIN_0728

>  <Canonical_Smiles>  (115) 
Cc1nnc(Nc2c(C)nn(C)c2C)c3ccccc13

>  <Inhibition>  (115) 
16.91538

>  <TDC_conf_true_inhibitor>  (115) 
0

>  <TDC_conf_non_inhibitor>  (115) 
1

>  <split>  (115) 
1

$$$$
115
     RDKit          3D

 49 52  0  0  0  0  0  0  0  0999 V2000
    5.6586   -0.5364   -0.0469 C   0  0  0  0  0  0  0  0  0  0  0  0
    5.0890    0.0328    1.2521 C   0  0  0  0  0  0  0  0  0  0  0  0
    4.5507   -1.0619    2.1727 C   0  0  0  0  0  0  0  0  0  0  0  0
    4.1349    1.1048    1.0298 N   0  0  0  0  0  0  0  0  0  0  0  0
    4.4335    2.3448    1.4752 N   0  0  0  0  0  0  0  0  0  0  0  0
    3.4019    3.1033    1.1350 N   0  0  0  0  0  0  0  0  0  0  0  0
    2.4473    2.3696    0.4801 N   0  0  0  0  0  0  0  0  0  0  0  0
    2.9111    1.1421    0.4188 C   0  0  0  0  0  0  0  0  0  0  0  0
    2.1091   -0.2090   -0.2929 S   0  0  0  0  0  0  0  0  0  0  0  0
    0.7705    0.6173   -1.2279 C   0  0  0  0  0  0  0  0  0  0  0  0
    1.3007    1.2047   -2.5323 C   0  0  0  0  0  0  0  0  0  0  0  0
   -0.3084   -0.4269   -1.5276 C   0  0  0  0  0  0  0  0  0  0  0  0
   -0.1210   -1.2998   -2.3821 O   0  0  0  0  0  0  0  0  0  0  0  0
   -1.6398   -0.3517   -0.7512 C   0  0  0  0  0  0  0  0  0  0  0  0
   -2.5232   -1.5809   -1.0997 C   0  0  0  0  0  0  0  0  0  0  0  0
   -3.8682   -1.5197   -0.3580 C   0  0  0  0  0  0  0  0  0  0  0  0
   -4.6086   -0.2355   -0.7640 C   0  0  0  0  0  0  0  0  0  0  0  0
   -3.7606    0.9950   -0.4051 C   0  0  0  0  0  0  0  0  0  0  0  0
   -3.4967    1.0035    1.1104 C   0  0  0  0  0  0  0  0  0  0  0  0
   -2.7550   -0.2787    1.5261 C   0  0  0  0  0  0  0  0  0  0  0  0
   -3.6086   -1.5014    1.1561 C   0  0  0  0  0  0  0  0  0  0  0  0
   -1.4117   -0.3501    0.7784 C   0  0  0  0  0  0  0  0  0  0  0  0
   -2.4173    0.9234   -1.1530 C   0  0  0  0  0  0  0  0  0  0  0  0
    6.4970   -1.2084    0.1662 H   0  0  0  0  0  0  0  0  0  0  0  0
    4.9160   -1.1092   -0.6095 H   0  0  0  0  0  0  0  0  0  0  0  0
    6.0267    0.2644   -0.6975 H   0  0  0  0  0  0  0  0  0  0  0  0
    5.9321    0.4975    1.7828 H   0  0  0  0  0  0  0  0  0  0  0  0
    5.3536   -1.7508    2.4567 H   0  0  0  0  0  0  0  0  0  0  0  0
    3.7648   -1.6549    1.6966 H   0  0  0  0  0  0  0  0  0  0  0  0
    4.1359   -0.6326    3.0913 H   0  0  0  0  0  0  0  0  0  0  0  0
    0.3361    1.4206   -0.6286 H   0  0  0  0  0  0  0  0  0  0  0  0
    2.0337    1.9975   -2.3504 H   0  0  0  0  0  0  0  0  0  0  0  0
    0.4795    1.6431   -3.1111 H   0  0  0  0  0  0  0  0  0  0  0  0
    1.7694    0.4440   -3.1672 H   0  0  0  0  0  0  0  0  0  0  0  0
   -2.7062   -1.6247   -2.1817 H   0  0  0  0  0  0  0  0  0  0  0  0
   -1.9991   -2.5098   -0.8381 H   0  0  0  0  0  0  0  0  0  0  0  0
   -4.4748   -2.3942   -0.6185 H   0  0  0  0  0  0  0  0  0  0  0  0
   -4.8162   -0.2466   -1.8410 H   0  0  0  0  0  0  0  0  0  0  0  0
   -5.5781   -0.1845   -0.2534 H   0  0  0  0  0  0  0  0  0  0  0  0
   -4.2944    1.9077   -0.6926 H   0  0  0  0  0  0  0  0  0  0  0  0
   -2.9030    1.8848    1.3825 H   0  0  0  0  0  0  0  0  0  0  0  0
   -4.4462    1.0789    1.6547 H   0  0  0  0  0  0  0  0  0  0  0  0
   -2.5752   -0.2676    2.6070 H   0  0  0  0  0  0  0  0  0  0  0  0
   -3.0962   -2.4224    1.4602 H   0  0  0  0  0  0  0  0  0  0  0  0
   -4.5609   -1.4723    1.6996 H   0  0  0  0  0  0  0  0  0  0  0  0
   -0.7942    0.5024    1.0844 H   0  0  0  0  0  0  0  0  0  0  0  0
   -0.8630   -1.2518    1.0799 H   0  0  0  0  0  0  0  0  0  0  0  0
   -2.5907    0.9344   -2.2371 H   0  0  0  0  0  0  0  0  0  0  0  0
   -1.8345    1.8249   -0.9295 H   0  0  0  0  0  0  0  0  0  0  0  0
  1  2  1  0
  2  3  1  0
  2  4  1  0
  4  5  1  0
  5  6  2  0
  6  7  1  0
  7  8  2  0
  8  9  1  0
  9 10  1  0
 10 11  1  0
 10 12  1  0
 12 13  2  0
 12 14  1  0
 14 15  1  0
 15 16  1  0
 16 17  1  0
 17 18  1  0
 18 19  1  0
 19 20  1  0
 20 21  1  0
 20 22  1  0
 18 23  1  0
  8  4  1  0
 22 14  1  0
 23 14  1  0
 21 16  1  0
  1 24  1  0
  1 25  1  0
  1 26  1  0
  2 27  1  0
  3 28  1  0
  3 29  1  0
  3 30  1  0
 10 31  1  0
 11 32  1  0
 11 33  1  0
 11 34  1  0
 15 35  1  0
 15 36  1  0
 16 37  1  0
 17 38  1  0
 17 39  1  0
 18 40  1  0
 19 41  1  0
 19 42  1  0
 20 43  1  0
 21 44  1  0
 21 45  1  0
 22 46  1  0
 22 47  1  0
 23 48  1  0
 23 49  1  0
M  END
>  <Unnamed: 0>  (116) 
749

>  <ID>  (116) 
TRAIN_0749

>  <Canonical_Smiles>  (116) 
CC(C)n1nnnc1SC(C)C(=O)C23CC4CC(CC(C4)C2)C3

>  <Inhibition>  (116) 
40.067404

>  <TDC_conf_true_inhibitor>  (116) 
1

>  <TDC_conf_non_inhibitor>  (116) 
0

>  <split>  (116) 
1

$$$$
116
     RDKit          3D

 58 59  0  0  0  0  0  0  0  0999 V2000
   -4.7305    3.2130    1.3398 C   0  0  0  0  0  0  0  0  0  0  0  0
   -3.9049    2.0459    1.8493 C   0  0  0  0  0  0  0  0  0  0  0  0
   -3.7975    1.0335    0.8376 O   0  0  0  0  0  0  0  0  0  0  0  0
   -2.8011    1.2044   -0.0674 C   0  0  0  0  0  0  0  0  0  0  0  0
   -2.0264    2.1465   -0.0959 O   0  0  0  0  0  0  0  0  0  0  0  0
   -2.8180    0.0847   -1.0408 C   0  0  0  0  0  0  0  0  0  0  0  0
   -1.6720   -0.4332   -1.5292 C   0  0  0  0  0  0  0  0  0  0  0  0
   -0.2618    0.0424   -1.2164 C   0  0  0  0  0  0  0  0  0  0  0  0
    0.1961   -0.6400    0.0036 N   0  0  0  0  0  0  0  0  0  0  0  0
    1.0080    0.1904    0.9300 C   0  0  0  0  0  0  0  0  0  0  0  0
    2.3257    0.7051    0.3416 C   0  0  0  0  0  0  0  0  0  0  0  0
    2.5498    0.8939   -0.8474 O   0  0  0  0  0  0  0  0  0  0  0  0
    3.1972    0.9697    1.3585 O   0  0  0  0  0  0  0  0  0  0  0  0
    4.5322    1.4671    1.0817 C   0  0  0  0  0  0  0  0  0  0  0  0
    5.1911    1.6037    2.4623 C   0  0  0  0  0  0  0  0  0  0  0  0
    5.3394    0.4626    0.2514 C   0  0  0  0  0  0  0  0  0  0  0  0
    4.4842    2.8499    0.4227 C   0  0  0  0  0  0  0  0  0  0  0  0
    0.7070   -1.9394   -0.1366 C   0  0  0  0  0  0  0  0  0  0  0  0
    1.6553   -2.3020   -1.1021 C   0  0  0  0  0  0  0  0  0  0  0  0
    2.1274   -3.6153   -1.1880 C   0  0  0  0  0  0  0  0  0  0  0  0
    1.6578   -4.5859   -0.3069 C   0  0  0  0  0  0  0  0  0  0  0  0
    0.7234   -4.2417    0.6651 C   0  0  0  0  0  0  0  0  0  0  0  0
    0.2580   -2.9277    0.7505 C   0  0  0  0  0  0  0  0  0  0  0  0
   -1.7581   -1.5116   -2.3895 N   0  0  0  0  0  0  0  0  0  0  0  0
   -2.8984   -2.1816   -2.7047 C   0  0  0  0  0  0  0  0  0  0  0  0
   -2.8982   -3.1761   -3.4219 O   0  0  0  0  0  0  0  0  0  0  0  0
   -4.0444   -1.7041   -2.1588 N   0  0  0  0  0  0  0  0  0  0  0  0
   -4.1656   -0.4370   -1.4601 C   0  0  0  0  0  0  0  0  0  0  0  0
   -4.8896    0.5703   -2.3543 C   0  0  0  0  0  0  0  0  0  0  0  0
   -4.2382    3.7021    0.4921 H   0  0  0  0  0  0  0  0  0  0  0  0
   -4.8818    3.9545    2.1294 H   0  0  0  0  0  0  0  0  0  0  0  0
   -5.7080    2.8697    0.9832 H   0  0  0  0  0  0  0  0  0  0  0  0
   -4.4065    1.5876    2.7091 H   0  0  0  0  0  0  0  0  0  0  0  0
   -2.9153    2.3717    2.1907 H   0  0  0  0  0  0  0  0  0  0  0  0
    0.3943   -0.1337   -2.0779 H   0  0  0  0  0  0  0  0  0  0  0  0
   -0.2398    1.1280   -1.0869 H   0  0  0  0  0  0  0  0  0  0  0  0
    1.2232   -0.3796    1.8427 H   0  0  0  0  0  0  0  0  0  0  0  0
    0.4206    1.0662    1.2305 H   0  0  0  0  0  0  0  0  0  0  0  0
    6.2185    1.9747    2.3883 H   0  0  0  0  0  0  0  0  0  0  0  0
    5.2078    0.6395    2.9831 H   0  0  0  0  0  0  0  0  0  0  0  0
    4.6212    2.2894    3.1003 H   0  0  0  0  0  0  0  0  0  0  0  0
    5.2802   -0.5401    0.6888 H   0  0  0  0  0  0  0  0  0  0  0  0
    6.3927    0.7535    0.1884 H   0  0  0  0  0  0  0  0  0  0  0  0
    4.9619    0.3806   -0.7718 H   0  0  0  0  0  0  0  0  0  0  0  0
    3.8319    3.5266    0.9863 H   0  0  0  0  0  0  0  0  0  0  0  0
    4.0838    2.8044   -0.5944 H   0  0  0  0  0  0  0  0  0  0  0  0
    5.4825    3.2968    0.3619 H   0  0  0  0  0  0  0  0  0  0  0  0
    2.0574   -1.5653   -1.7922 H   0  0  0  0  0  0  0  0  0  0  0  0
    2.8631   -3.8776   -1.9436 H   0  0  0  0  0  0  0  0  0  0  0  0
    2.0167   -5.6095   -0.3800 H   0  0  0  0  0  0  0  0  0  0  0  0
    0.3468   -4.9951    1.3523 H   0  0  0  0  0  0  0  0  0  0  0  0
   -0.4828   -2.6742    1.5042 H   0  0  0  0  0  0  0  0  0  0  0  0
   -0.9061   -1.9525   -2.7193 H   0  0  0  0  0  0  0  0  0  0  0  0
   -4.8762   -2.2219   -2.4058 H   0  0  0  0  0  0  0  0  0  0  0  0
   -4.7894   -0.6583   -0.5872 H   0  0  0  0  0  0  0  0  0  0  0  0
   -5.0535    1.5220   -1.8380 H   0  0  0  0  0  0  0  0  0  0  0  0
   -4.3225    0.7704   -3.2703 H   0  0  0  0  0  0  0  0  0  0  0  0
   -5.8690    0.1825   -2.6570 H   0  0  0  0  0  0  0  0  0  0  0  0
  1  2  1  0
  2  3  1  0
  3  4  1  0
  4  5  2  0
  4  6  1  0
  6  7  2  0
  7  8  1  0
  8  9  1  0
  9 10  1  0
 10 11  1  0
 11 12  2  0
 11 13  1  0
 13 14  1  0
 14 15  1  0
 14 16  1  0
 14 17  1  0
  9 18  1  0
 18 19  2  0
 19 20  1  0
 20 21  2  0
 21 22  1  0
 22 23  2  0
  7 24  1  0
 24 25  1  0
 25 26  2  0
 25 27  1  0
 27 28  1  0
 28 29  1  0
 28  6  1  0
 23 18  1  0
  1 30  1  0
  1 31  1  0
  1 32  1  0
  2 33  1  0
  2 34  1  0
  8 35  1  0
  8 36  1  0
 10 37  1  0
 10 38  1  0
 15 39  1  0
 15 40  1  0
 15 41  1  0
 16 42  1  0
 16 43  1  0
 16 44  1  0
 17 45  1  0
 17 46  1  0
 17 47  1  0
 19 48  1  0
 20 49  1  0
 21 50  1  0
 22 51  1  0
 23 52  1  0
 24 53  1  0
 27 54  1  0
 28 55  1  0
 29 56  1  0
 29 57  1  0
 29 58  1  0
M  END
>  <Unnamed: 0>  (117) 
751

>  <ID>  (117) 
TRAIN_0751

>  <Canonical_Smiles>  (117) 
CCOC(=O)C1=C(CN(CC(=O)OC(C)(C)C)c2ccccc2)NC(=O)NC1C

>  <Inhibition>  (117) 
31.018189

>  <TDC_conf_true_inhibitor>  (117) 
0

>  <TDC_conf_non_inhibitor>  (117) 
1

>  <split>  (117) 
1

$$$$
117
     RDKit          3D

 31 34  0  0  0  0  0  0  0  0999 V2000
    0.4629    2.5771    0.2208 C   0  0  0  0  0  0  0  0  0  0  0  0
   -0.7409    1.8015   -0.1766 C   0  0  0  0  0  0  0  0  0  0  0  0
   -1.7450    2.4715   -0.7590 N   0  0  0  0  0  0  0  0  0  0  0  0
   -2.7093    1.5576   -0.9093 N   0  0  0  0  0  0  0  0  0  0  0  0
   -2.3378    0.3026   -0.5286 C   0  0  0  0  0  0  0  0  0  0  0  0
   -3.1843   -0.7472   -0.6437 N   0  0  0  0  0  0  0  0  0  0  0  0
   -2.6838   -1.8045   -1.1952 C   0  0  0  0  0  0  0  0  0  0  0  0
   -3.4751   -2.8856   -1.2697 O   0  0  0  0  0  0  0  0  0  0  0  0
   -1.3195   -1.9903   -1.8037 C   0  0  0  0  0  0  0  0  0  0  0  0
    0.0038   -2.1591   -0.5685 S   0  0  0  0  0  0  0  0  0  0  0  0
   -0.3153   -0.7506    0.5828 C   0  0  0  0  0  0  0  0  0  0  0  0
   -1.0459    0.4105   -0.0295 C   0  0  0  0  0  0  0  0  0  0  0  0
    0.9245   -0.4178    1.3438 C   0  0  0  0  0  0  0  0  0  0  0  0
    1.1119   -0.2472    2.7153 C   0  0  0  0  0  0  0  0  0  0  0  0
   -0.0857   -0.3547    3.9241 Cl  0  0  0  0  0  0  0  0  0  0  0  0
    2.4209    0.0487    3.0308 N   0  0  0  0  0  0  0  0  0  0  0  0
    3.0116    0.0448    1.8725 C   0  0  0  0  0  0  0  0  0  0  0  0
    4.6392    0.3355    1.3433 S   0  0  0  0  0  0  0  0  0  0  0  0
    4.1013    0.0932   -0.3232 C   0  0  0  0  0  0  0  0  0  0  0  0
    2.7892   -0.1828   -0.4158 C   0  0  0  0  0  0  0  0  0  0  0  0
    2.1799   -0.2145    0.8229 N   0  0  0  0  0  0  0  0  0  0  0  0
    1.3226    2.2940   -0.3911 H   0  0  0  0  0  0  0  0  0  0  0  0
    0.6985    2.4251    1.2772 H   0  0  0  0  0  0  0  0  0  0  0  0
    0.3068    3.6528    0.0807 H   0  0  0  0  0  0  0  0  0  0  0  0
   -3.6027    1.8431   -1.2920 H   0  0  0  0  0  0  0  0  0  0  0  0
   -4.3186   -2.6652   -0.8384 H   0  0  0  0  0  0  0  0  0  0  0  0
   -1.3221   -2.9004   -2.4131 H   0  0  0  0  0  0  0  0  0  0  0  0
   -1.0956   -1.1634   -2.4855 H   0  0  0  0  0  0  0  0  0  0  0  0
   -1.0140   -1.1893    1.3088 H   0  0  0  0  0  0  0  0  0  0  0  0
    4.7880    0.1723   -1.1559 H   0  0  0  0  0  0  0  0  0  0  0  0
    2.2348   -0.3579   -1.3242 H   0  0  0  0  0  0  0  0  0  0  0  0
  1  2  1  0
  2  3  2  0
  3  4  1  0
  4  5  1  0
  5  6  1  0
  6  7  2  0
  7  8  1  0
  7  9  1  0
  9 10  1  0
 10 11  1  0
 11 12  1  0
 11 13  1  0
 13 14  2  0
 14 15  1  0
 14 16  1  0
 16 17  2  0
 17 18  1  0
 18 19  1  0
 19 20  2  0
 20 21  1  0
 12  2  1  0
 12  5  2  0
 21 13  1  0
 21 17  1  0
  1 22  1  0
  1 23  1  0
  1 24  1  0
  4 25  1  0
  8 26  1  0
  9 27  1  0
  9 28  1  0
 11 29  1  0
 19 30  1  0
 20 31  1  0
M  END
>  <Unnamed: 0>  (118) 
755

>  <ID>  (118) 
TRAIN_0755

>  <Canonical_Smiles>  (118) 
Cc1n[nH]c2N=C(O)CSC(c12)c3c(Cl)nc4sccn34

>  <Inhibition>  (118) 
29.65794

>  <TDC_conf_true_inhibitor>  (118) 
0

>  <TDC_conf_non_inhibitor>  (118) 
1

>  <split>  (118) 
1

$$$$
118
     RDKit          3D

 41 43  0  0  0  0  0  0  0  0999 V2000
    4.7588    3.1767   -0.9506 C   0  0  0  0  0  0  0  0  0  0  0  0
    3.9690    1.9868   -0.9387 O   0  0  0  0  0  0  0  0  0  0  0  0
    3.9693    1.3386    0.2537 C   0  0  0  0  0  0  0  0  0  0  0  0
    4.5701    1.6920    1.2562 O   0  0  0  0  0  0  0  0  0  0  0  0
    3.1216    0.1170    0.1875 C   0  0  0  0  0  0  0  0  0  0  0  0
    2.9606   -0.6413    1.3529 C   0  0  0  0  0  0  0  0  0  0  0  0
    2.1719   -1.7949    1.3429 C   0  0  0  0  0  0  0  0  0  0  0  0
    1.5276   -2.2067    0.1693 C   0  0  0  0  0  0  0  0  0  0  0  0
    0.6570   -3.4423    0.1595 C   0  0  0  0  0  0  0  0  0  0  0  0
   -0.5977   -3.3483    1.0397 C   0  0  0  0  0  0  0  0  0  0  0  0
   -1.4574   -2.2381    0.6674 N   0  0  0  0  0  0  0  0  0  0  0  0
   -1.4683   -1.0710    1.3982 C   0  0  0  0  0  0  0  0  0  0  0  0
   -0.9098   -0.9207    2.4779 O   0  0  0  0  0  0  0  0  0  0  0  0
   -2.1765    0.0608    0.7341 C   0  0  0  0  0  0  0  0  0  0  0  0
   -1.5716    1.3918    0.7240 C   0  0  0  0  0  0  0  0  0  0  0  0
   -2.1809    2.4412    0.1385 C   0  0  0  0  0  0  0  0  0  0  0  0
   -3.4512    2.2631   -0.4779 C   0  0  0  0  0  0  0  0  0  0  0  0
   -4.2382    3.1047   -1.1142 N   0  0  0  0  0  0  0  0  0  0  0  0
   -5.3403    2.3716   -1.4733 C   0  0  0  0  0  0  0  0  0  0  0  0
   -5.2237    1.0652   -1.0580 C   0  0  0  0  0  0  0  0  0  0  0  0
   -4.0100    0.9899   -0.4238 N   0  0  0  0  0  0  0  0  0  0  0  0
   -3.3903   -0.1044    0.1730 C   0  0  0  0  0  0  0  0  0  0  0  0
    1.6971   -1.4493   -0.9982 C   0  0  0  0  0  0  0  0  0  0  0  0
    2.4865   -0.2951   -0.9905 C   0  0  0  0  0  0  0  0  0  0  0  0
    4.6906    3.6182   -1.9487 H   0  0  0  0  0  0  0  0  0  0  0  0
    4.3736    3.9001   -0.2251 H   0  0  0  0  0  0  0  0  0  0  0  0
    5.8083    2.9426   -0.7466 H   0  0  0  0  0  0  0  0  0  0  0  0
    3.4416   -0.3337    2.2798 H   0  0  0  0  0  0  0  0  0  0  0  0
    2.0501   -2.3565    2.2672 H   0  0  0  0  0  0  0  0  0  0  0  0
    1.2633   -4.2982    0.4812 H   0  0  0  0  0  0  0  0  0  0  0  0
    0.3476   -3.6606   -0.8709 H   0  0  0  0  0  0  0  0  0  0  0  0
   -0.3242   -3.2719    2.0975 H   0  0  0  0  0  0  0  0  0  0  0  0
   -1.1919   -4.2601    0.9168 H   0  0  0  0  0  0  0  0  0  0  0  0
   -1.8281   -2.2263   -0.2727 H   0  0  0  0  0  0  0  0  0  0  0  0
   -0.6071    1.5102    1.2125 H   0  0  0  0  0  0  0  0  0  0  0  0
   -1.7338    3.4288    0.1318 H   0  0  0  0  0  0  0  0  0  0  0  0
   -6.1621    2.8252   -2.0128 H   0  0  0  0  0  0  0  0  0  0  0  0
   -5.8794    0.2128   -1.1567 H   0  0  0  0  0  0  0  0  0  0  0  0
   -3.9309   -1.0419    0.1645 H   0  0  0  0  0  0  0  0  0  0  0  0
    1.2128   -1.7478   -1.9254 H   0  0  0  0  0  0  0  0  0  0  0  0
    2.5961    0.2718   -1.9116 H   0  0  0  0  0  0  0  0  0  0  0  0
  1  2  1  0
  2  3  1  0
  3  4  2  0
  3  5  1  0
  5  6  2  0
  6  7  1  0
  7  8  2  0
  8  9  1  0
  9 10  1  0
 10 11  1  0
 11 12  1  0
 12 13  2  0
 12 14  1  0
 14 15  1  0
 15 16  2  0
 16 17  1  0
 17 18  2  0
 18 19  1  0
 19 20  2  0
 20 21  1  0
 21 22  1  0
  8 23  1  0
 23 24  2  0
 24  5  1  0
 22 14  2  0
 21 17  1  0
  1 25  1  0
  1 26  1  0
  1 27  1  0
  6 28  1  0
  7 29  1  0
  9 30  1  0
  9 31  1  0
 10 32  1  0
 10 33  1  0
 11 34  1  0
 15 35  1  0
 16 36  1  0
 19 37  1  0
 20 38  1  0
 22 39  1  0
 23 40  1  0
 24 41  1  0
M  END
>  <Unnamed: 0>  (119) 
760

>  <ID>  (119) 
TRAIN_0760

>  <Canonical_Smiles>  (119) 
COC(=O)c1ccc(CCNC(=O)c2ccc3nccn3c2)cc1

>  <Inhibition>  (119) 
30.670743

>  <TDC_conf_true_inhibitor>  (119) 
1

>  <TDC_conf_non_inhibitor>  (119) 
0

>  <split>  (119) 
1

$$$$
119
     RDKit          3D

 43 46  0  0  0  0  0  0  0  0999 V2000
    5.5373   -1.7873    0.6073 C   0  0  0  0  0  0  0  0  0  0  0  0
    5.0056   -0.8626   -0.4852 C   0  0  0  0  0  0  0  0  0  0  0  0
    3.7975   -0.1729   -0.0345 N   0  0  0  0  0  0  0  0  0  0  0  0
    2.5705   -0.7908   -0.0906 C   0  0  0  0  0  0  0  0  0  0  0  0
    2.4398   -1.9575   -0.4336 O   0  0  0  0  0  0  0  0  0  0  0  0
    1.5745    0.0727    0.3078 N   0  0  0  0  0  0  0  0  0  0  0  0
    0.1868   -0.1624    0.3361 C   0  0  0  0  0  0  0  0  0  0  0  0
   -0.4188   -1.3158   -0.1580 C   0  0  0  0  0  0  0  0  0  0  0  0
   -1.8104   -1.4689   -0.0991 C   0  0  0  0  0  0  0  0  0  0  0  0
   -2.6239   -0.4590    0.4375 C   0  0  0  0  0  0  0  0  0  0  0  0
   -2.0148    0.6876    0.9529 C   0  0  0  0  0  0  0  0  0  0  0  0
   -0.6218    0.8345    0.8943 C   0  0  0  0  0  0  0  0  0  0  0  0
   -4.0386   -0.6548    0.4784 N   0  0  0  0  0  0  0  0  0  0  0  0
   -4.5297   -1.9215    0.3514 N   0  0  0  0  0  0  0  0  0  0  0  0
   -5.8293   -1.8082    0.6072 C   0  0  0  0  0  0  0  0  0  0  0  0
   -6.2340   -0.4771    0.7979 C   0  0  0  0  0  0  0  0  0  0  0  0
   -7.4630    0.1628    1.0434 C   0  0  0  0  0  0  0  0  0  0  0  0
   -7.5048    1.5578    1.1012 C   0  0  0  0  0  0  0  0  0  0  0  0
   -6.3499    2.3059    0.8996 C   0  0  0  0  0  0  0  0  0  0  0  0
   -5.1179    1.6845    0.6629 C   0  0  0  0  0  0  0  0  0  0  0  0
   -5.0669    0.2769    0.6524 C   0  0  0  0  0  0  0  0  0  0  0  0
    6.0290    0.1748   -0.8833 C   0  0  0  0  0  0  0  0  0  0  0  0
    7.2744   -0.1579   -1.3591 N   0  0  0  0  0  0  0  0  0  0  0  0
    7.8269    1.0062   -1.6007 C   0  0  0  0  0  0  0  0  0  0  0  0
    6.9527    1.9977   -1.2913 N   0  0  0  0  0  0  0  0  0  0  0  0
    5.7899    1.5006   -0.8348 N   0  0  0  0  0  0  0  0  0  0  0  0
    6.4386   -2.3137    0.2747 H   0  0  0  0  0  0  0  0  0  0  0  0
    5.7944   -1.2250    1.5126 H   0  0  0  0  0  0  0  0  0  0  0  0
    4.7932   -2.5401    0.8874 H   0  0  0  0  0  0  0  0  0  0  0  0
    4.7562   -1.4533   -1.3751 H   0  0  0  0  0  0  0  0  0  0  0  0
    3.8194    0.8238   -0.2118 H   0  0  0  0  0  0  0  0  0  0  0  0
    1.8998    0.9325    0.7226 H   0  0  0  0  0  0  0  0  0  0  0  0
    0.1609   -2.1212   -0.5991 H   0  0  0  0  0  0  0  0  0  0  0  0
   -2.2443   -2.3864   -0.4950 H   0  0  0  0  0  0  0  0  0  0  0  0
   -2.5773    1.4623    1.4603 H   0  0  0  0  0  0  0  0  0  0  0  0
   -0.1788    1.7364    1.3097 H   0  0  0  0  0  0  0  0  0  0  0  0
   -6.4391   -2.7021    0.6186 H   0  0  0  0  0  0  0  0  0  0  0  0
   -8.3737   -0.4166    1.1666 H   0  0  0  0  0  0  0  0  0  0  0  0
   -8.4517    2.0611    1.2816 H   0  0  0  0  0  0  0  0  0  0  0  0
   -6.4056    3.3926    0.9160 H   0  0  0  0  0  0  0  0  0  0  0  0
   -4.2460    2.2974    0.4652 H   0  0  0  0  0  0  0  0  0  0  0  0
    8.8198    1.1854   -1.9876 H   0  0  0  0  0  0  0  0  0  0  0  0
    7.0730    3.0016   -1.3652 H   0  0  0  0  0  0  0  0  0  0  0  0
  1  2  1  0
  2  3  1  0
  3  4  1  0
  4  5  2  0
  4  6  1  0
  6  7  1  0
  7  8  2  0
  8  9  1  0
  9 10  2  0
 10 11  1  0
 11 12  2  0
 10 13  1  0
 13 14  1  0
 14 15  2  0
 15 16  1  0
 16 17  2  0
 17 18  1  0
 18 19  2  0
 19 20  1  0
 20 21  2  0
  2 22  1  0
 22 23  1  0
 23 24  2  0
 24 25  1  0
 25 26  1  0
 12  7  1  0
 21 13  1  0
 21 16  1  0
 26 22  2  0
  1 27  1  0
  1 28  1  0
  1 29  1  0
  2 30  1  0
  3 31  1  0
  6 32  1  0
  8 33  1  0
  9 34  1  0
 11 35  1  0
 12 36  1  0
 15 37  1  0
 17 38  1  0
 18 39  1  0
 19 40  1  0
 20 41  1  0
 24 42  1  0
 25 43  1  0
M  END
>  <Unnamed: 0>  (120) 
772

>  <ID>  (120) 
TRAIN_0772

>  <Canonical_Smiles>  (120) 
CC(NC(=O)Nc1ccc(cc1)n2ncc3ccccc23)c4nc[nH]n4

>  <Inhibition>  (120) 
0.5

>  <TDC_conf_true_inhibitor>  (120) 
0

>  <TDC_conf_non_inhibitor>  (120) 
1

>  <split>  (120) 
1

$$$$
120
     RDKit          3D

 36 38  0  0  0  0  0  0  0  0999 V2000
    1.4048    2.2054    1.4165 C   0  0  0  0  0  0  0  0  0  0  0  0
    0.4918    2.4010    0.2638 C   0  0  0  0  0  0  0  0  0  0  0  0
    0.1866    3.6645   -0.1748 N   0  0  0  0  0  0  0  0  0  0  0  0
   -0.6562    3.6888   -1.2131 N   0  0  0  0  0  0  0  0  0  0  0  0
   -0.9164    2.4070   -1.4114 C   0  0  0  0  0  0  0  0  0  0  0  0
   -1.8026    2.1377   -2.3750 O   0  0  0  0  0  0  0  0  0  0  0  0
   -0.2101    1.5234   -0.5604 C   0  0  0  0  0  0  0  0  0  0  0  0
   -0.2825    0.0268   -0.6236 C   0  0  0  0  0  0  0  0  0  0  0  0
    1.0629   -0.5718   -0.2648 C   0  0  0  0  0  0  0  0  0  0  0  0
    2.0911   -0.5793   -1.2240 C   0  0  0  0  0  0  0  0  0  0  0  0
    3.3378   -1.1207   -0.9221 C   0  0  0  0  0  0  0  0  0  0  0  0
    3.5328   -1.6459    0.3414 C   0  0  0  0  0  0  0  0  0  0  0  0
    2.5832   -1.6602    1.2980 N   0  0  0  0  0  0  0  0  0  0  0  0
    1.3798   -1.1244    0.9766 C   0  0  0  0  0  0  0  0  0  0  0  0
   -1.3717   -0.6225    0.1720 C   0  0  0  0  0  0  0  0  0  0  0  0
   -2.0025   -1.8370   -0.0878 C   0  0  0  0  0  0  0  0  0  0  0  0
   -1.8003   -2.8416   -1.1596 C   0  0  0  0  0  0  0  0  0  0  0  0
   -2.9310   -2.0133    0.9064 N   0  0  0  0  0  0  0  0  0  0  0  0
   -2.9664   -1.0025    1.7891 N   0  0  0  0  0  0  0  0  0  0  0  0
   -2.0293   -0.1868    1.3338 C   0  0  0  0  0  0  0  0  0  0  0  0
   -1.8510    0.9062    2.0665 O   0  0  0  0  0  0  0  0  0  0  0  0
    2.3697    1.8132    1.0820 H   0  0  0  0  0  0  0  0  0  0  0  0
    1.5951    3.1489    1.9395 H   0  0  0  0  0  0  0  0  0  0  0  0
    0.9716    1.5138    2.1444 H   0  0  0  0  0  0  0  0  0  0  0  0
    0.5172    4.5504    0.1924 H   0  0  0  0  0  0  0  0  0  0  0  0
   -2.1316    1.2336   -2.2756 H   0  0  0  0  0  0  0  0  0  0  0  0
   -0.4698   -0.2439   -1.6743 H   0  0  0  0  0  0  0  0  0  0  0  0
    1.9258   -0.1516   -2.2111 H   0  0  0  0  0  0  0  0  0  0  0  0
    4.1373   -1.1275   -1.6542 H   0  0  0  0  0  0  0  0  0  0  0  0
    4.4865   -2.0792    0.6280 H   0  0  0  0  0  0  0  0  0  0  0  0
    0.6635   -1.1510    1.7939 H   0  0  0  0  0  0  0  0  0  0  0  0
   -2.5045   -3.6751   -1.0707 H   0  0  0  0  0  0  0  0  0  0  0  0
   -0.7856   -3.2494   -1.1128 H   0  0  0  0  0  0  0  0  0  0  0  0
   -1.9428   -2.3832   -2.1433 H   0  0  0  0  0  0  0  0  0  0  0  0
   -3.5664   -2.7938    1.0418 H   0  0  0  0  0  0  0  0  0  0  0  0
   -2.5166    0.8400    2.7723 H   0  0  0  0  0  0  0  0  0  0  0  0
  1  2  1  0
  2  3  1  0
  3  4  1  0
  4  5  2  0
  5  6  1  0
  5  7  1  0
  7  8  1  0
  8  9  1  0
  9 10  2  0
 10 11  1  0
 11 12  2  0
 12 13  1  0
 13 14  2  0
  8 15  1  0
 15 16  2  0
 16 17  1  0
 16 18  1  0
 18 19  1  0
 19 20  2  0
 20 21  1  0
  7  2  2  0
 14  9  1  0
 20 15  1  0
  1 22  1  0
  1 23  1  0
  1 24  1  0
  3 25  1  0
  6 26  1  0
  8 27  1  0
 10 28  1  0
 11 29  1  0
 12 30  1  0
 14 31  1  0
 17 32  1  0
 17 33  1  0
 17 34  1  0
 18 35  1  0
 21 36  1  0
M  END
>  <Unnamed: 0>  (121) 
773

>  <ID>  (121) 
TRAIN_0773

>  <Canonical_Smiles>  (121) 
Cc1[nH]nc(O)c1C(c2cccnc2)c3c(C)[nH]nc3O

>  <Inhibition>  (121) 
0.5

>  <TDC_conf_true_inhibitor>  (121) 
0

>  <TDC_conf_non_inhibitor>  (121) 
0

>  <split>  (121) 
1

$$$$
121
     RDKit          3D

 30 31  0  0  0  0  0  0  0  0999 V2000
   -4.5347    0.6687    1.5003 C   0  0  0  0  0  0  0  0  0  0  0  0
   -3.7237    0.3747    0.3158 N   0  0  0  0  0  0  0  0  0  0  0  0
   -4.3150    0.0524   -0.8979 C   0  0  0  0  0  0  0  0  0  0  0  0
   -3.6478   -0.2874   -2.0107 C   0  0  0  0  0  0  0  0  0  0  0  0
   -4.4930   -0.7027   -3.6139 Br  0  0  0  0  0  0  0  0  0  0  0  0
   -2.1548   -0.3323   -1.9295 C   0  0  0  0  0  0  0  0  0  0  0  0
   -1.4427   -0.6179   -2.8928 O   0  0  0  0  0  0  0  0  0  0  0  0
   -1.5131   -0.0205   -0.6007 C   0  0  0  0  0  0  0  0  0  0  0  0
   -2.3369    0.3001    0.4089 C   0  0  0  0  0  0  0  0  0  0  0  0
   -0.1346   -0.1016   -0.5640 N   0  0  0  0  0  0  0  0  0  0  0  0
    0.7073    0.1241    0.5053 C   0  0  0  0  0  0  0  0  0  0  0  0
    0.3351    0.4423    1.6318 O   0  0  0  0  0  0  0  0  0  0  0  0
    2.1733   -0.0332    0.2623 C   0  0  0  0  0  0  0  0  0  0  0  0
    3.0552    0.1968    1.3327 C   0  0  0  0  0  0  0  0  0  0  0  0
    4.4371    0.0640    1.1619 C   0  0  0  0  0  0  0  0  0  0  0  0
    4.9392   -0.2999   -0.0828 C   0  0  0  0  0  0  0  0  0  0  0  0
    6.2772   -0.4412   -0.2957 O   0  0  0  0  0  0  0  0  0  0  0  0
    4.0858   -0.5319   -1.1533 C   0  0  0  0  0  0  0  0  0  0  0  0
    2.7106   -0.3974   -0.9748 C   0  0  0  0  0  0  0  0  0  0  0  0
    1.9160   -0.6294   -2.0302 F   0  0  0  0  0  0  0  0  0  0  0  0
   -5.4957    1.1161    1.2231 H   0  0  0  0  0  0  0  0  0  0  0  0
   -4.0252    1.3778    2.1623 H   0  0  0  0  0  0  0  0  0  0  0  0
   -4.7291   -0.2526    2.0593 H   0  0  0  0  0  0  0  0  0  0  0  0
   -5.4010    0.0972   -0.8907 H   0  0  0  0  0  0  0  0  0  0  0  0
   -1.9622    0.5339    1.4004 H   0  0  0  0  0  0  0  0  0  0  0  0
    0.2759   -0.3636   -1.4626 H   0  0  0  0  0  0  0  0  0  0  0  0
    2.6670    0.4821    2.3096 H   0  0  0  0  0  0  0  0  0  0  0  0
    5.0959    0.2477    2.0057 H   0  0  0  0  0  0  0  0  0  0  0  0
    6.7536   -0.2505    0.5297 H   0  0  0  0  0  0  0  0  0  0  0  0
    4.4803   -0.8159   -2.1237 H   0  0  0  0  0  0  0  0  0  0  0  0
  1  2  1  0
  2  3  1  0
  3  4  2  0
  4  5  1  0
  4  6  1  0
  6  7  2  0
  6  8  1  0
  8  9  2  0
  8 10  1  0
 10 11  1  0
 11 12  2  0
 11 13  1  0
 13 14  2  0
 14 15  1  0
 15 16  2  0
 16 17  1  0
 16 18  1  0
 18 19  2  0
 19 20  1  0
  9  2  1  0
 19 13  1  0
  1 21  1  0
  1 22  1  0
  1 23  1  0
  3 24  1  0
  9 25  1  0
 10 26  1  0
 14 27  1  0
 15 28  1  0
 17 29  1  0
 18 30  1  0
M  END
>  <Unnamed: 0>  (122) 
788

>  <ID>  (122) 
TRAIN_0788

>  <Canonical_Smiles>  (122) 
CN1C=C(Br)C(=O)C(=C1)NC(=O)c2ccc(O)cc2F

>  <Inhibition>  (122) 
41.398772

>  <TDC_conf_true_inhibitor>  (122) 
0

>  <TDC_conf_non_inhibitor>  (122) 
1

>  <split>  (122) 
1

$$$$
122
     RDKit          3D

 30 31  0  0  0  0  0  0  0  0999 V2000
   -2.9370    2.0080   -1.3857 C   0  0  0  0  0  0  0  0  0  0  0  0
   -1.9946    1.1913   -0.5485 C   0  0  0  0  0  0  0  0  0  0  0  0
   -1.7246    1.6247    0.7604 C   0  0  0  0  0  0  0  0  0  0  0  0
   -0.8786    0.9074    1.6080 C   0  0  0  0  0  0  0  0  0  0  0  0
   -0.5713    1.3201    2.8537 N   0  0  0  0  0  0  0  0  0  0  0  0
    0.5068    0.0975    3.4165 S   0  0  0  0  0  4  0  0  0  0  0  0
    0.4627   -0.9471    2.0667 N   0  0  0  0  0  0  0  0  0  0  0  0
   -0.2864   -0.2822    1.1597 C   0  0  0  0  0  0  0  0  0  0  0  0
   -0.4736   -0.6769   -0.1858 C   0  0  0  0  0  0  0  0  0  0  0  0
   -1.3774    0.0151   -1.0351 C   0  0  0  0  0  0  0  0  0  0  0  0
   -1.6545   -0.4532   -2.4383 C   0  0  0  0  0  0  0  0  0  0  0  0
    0.6326   -1.9117   -0.8850 S   0  0  0  0  0  6  0  0  0  0  0  0
    0.0305   -3.2225   -0.7331 O   0  0  0  0  0  0  0  0  0  0  0  0
    1.0614   -1.4642   -2.2022 O   0  0  0  0  0  0  0  0  0  0  0  0
    2.0317   -1.8529    0.0960 N   0  0  0  0  0  0  0  0  0  0  0  0
    2.7690   -0.5608   -0.0198 C   0  0  0  0  0  0  0  0  0  0  0  0
    3.7708   -0.3780    1.0969 C   0  0  0  0  0  0  0  0  0  0  0  0
    4.9870   -0.3757    0.9044 O   0  0  0  0  0  0  0  0  0  0  0  0
    3.2577   -0.2074    2.3308 O   0  0  0  0  0  0  0  0  0  0  0  0
   -2.4853    2.2447   -2.3545 H   0  0  0  0  0  0  0  0  0  0  0  0
   -3.1808    2.9620   -0.9056 H   0  0  0  0  0  0  0  0  0  0  0  0
   -3.8741    1.4640   -1.5401 H   0  0  0  0  0  0  0  0  0  0  0  0
   -2.1748    2.5347    1.1475 H   0  0  0  0  0  0  0  0  0  0  0  0
   -0.9584    0.0156   -3.1402 H   0  0  0  0  0  0  0  0  0  0  0  0
   -2.6754   -0.2091   -2.7485 H   0  0  0  0  0  0  0  0  0  0  0  0
   -1.5865   -1.5420   -2.5228 H   0  0  0  0  0  0  0  0  0  0  0  0
    1.6370   -1.8906    1.0591 H   0  0  0  0  0  0  0  0  0  0  0  0
    2.1185    0.3170   -0.0265 H   0  0  0  0  0  0  0  0  0  0  0  0
    3.3248   -0.5654   -0.9645 H   0  0  0  0  0  0  0  0  0  0  0  0
    2.2426   -0.1624    2.4221 H   0  0  0  0  0  0  0  0  0  0  0  0
  1  2  1  0
  2  3  2  0
  3  4  1  0
  4  5  1  0
  5  6  2  0
  6  7  2  0
  7  8  1  0
  8  9  1  0
  9 10  2  0
 10 11  1  0
  9 12  1  0
 12 13  2  0
 12 14  2  0
 12 15  1  0
 15 16  1  0
 16 17  1  0
 17 18  2  0
 17 19  1  0
 10  2  1  0
  8  4  2  0
  1 20  1  0
  1 21  1  0
  1 22  1  0
  3 23  1  0
 11 24  1  0
 11 25  1  0
 11 26  1  0
 15 27  1  0
 16 28  1  0
 16 29  1  0
 19 30  1  0
M  END
>  <Unnamed: 0>  (123) 
793

>  <ID>  (123) 
TRAIN_0793

>  <Canonical_Smiles>  (123) 
Cc1cc2N=S=Nc2c(c1C)S(=O)(=O)NCC(=O)O

>  <Inhibition>  (123) 
40.371803

>  <TDC_conf_true_inhibitor>  (123) 
0

>  <TDC_conf_non_inhibitor>  (123) 
1

>  <split>  (123) 
1

$$$$
123
     RDKit          3D

 51 54  0  0  0  0  0  0  0  0999 V2000
   -7.8424    0.8508   -0.3691 C   0  0  0  0  0  0  0  0  0  0  0  0
   -7.1932   -0.4110   -0.2708 O   0  0  0  0  0  0  0  0  0  0  0  0
   -5.8691   -0.4239    0.0826 C   0  0  0  0  0  0  0  0  0  0  0  0
   -5.1200    0.7175    0.3880 C   0  0  0  0  0  0  0  0  0  0  0  0
   -3.7673    0.6068    0.7368 C   0  0  0  0  0  0  0  0  0  0  0  0
   -3.0498    1.7474    0.9715 O   0  0  0  0  0  0  0  0  0  0  0  0
   -3.3941    2.3328    2.2308 C   0  0  0  0  0  0  0  0  0  0  0  0
   -3.1477   -0.6425    0.7458 C   0  0  0  0  0  0  0  0  0  0  0  0
   -3.8860   -1.7927    0.4556 C   0  0  0  0  0  0  0  0  0  0  0  0
   -5.2388   -1.6793    0.1278 C   0  0  0  0  0  0  0  0  0  0  0  0
   -6.1014   -3.1327   -0.2372 Cl  0  0  0  0  0  0  0  0  0  0  0  0
   -1.4275   -0.8010    1.1412 S   0  0  0  0  0  6  0  0  0  0  0  0
   -1.0440   -2.1778    0.8986 O   0  0  0  0  0  0  0  0  0  0  0  0
   -1.2283   -0.2046    2.4446 O   0  0  0  0  0  0  0  0  0  0  0  0
   -0.6454    0.1420   -0.0355 N   0  0  0  0  0  0  0  0  0  0  0  0
   -0.7963   -0.2676   -1.4609 C   0  0  0  0  0  0  0  0  0  0  0  0
    0.2201   -1.3435   -1.8548 C   0  0  0  0  0  0  0  0  0  0  0  0
    1.5610   -0.9180   -1.5859 O   0  0  0  0  0  0  0  0  0  0  0  0
    1.7498   -0.6533   -0.1743 C   0  0  0  0  0  0  0  0  0  0  0  0
    0.7907    0.4741    0.2694 C   0  0  0  0  0  0  0  0  0  0  0  0
    3.2009   -0.2752    0.1014 C   0  0  0  0  0  0  0  0  0  0  0  0
    4.2126   -0.5627   -0.8179 C   0  0  0  0  0  0  0  0  0  0  0  0
    5.5439   -0.2435   -0.5159 C   0  0  0  0  0  0  0  0  0  0  0  0
    6.5915   -0.5092   -1.4123 C   0  0  0  0  0  0  0  0  0  0  0  0
    7.9013   -0.1872   -1.0704 C   0  0  0  0  0  0  0  0  0  0  0  0
    8.8932   -0.4726   -1.9245 F   0  0  0  0  0  0  0  0  0  0  0  0
    8.1993    0.4094    0.1486 C   0  0  0  0  0  0  0  0  0  0  0  0
    7.1681    0.6815    1.0508 C   0  0  0  0  0  0  0  0  0  0  0  0
    5.8376    0.3539    0.7253 C   0  0  0  0  0  0  0  0  0  0  0  0
    4.7655    0.5861    1.5886 C   0  0  0  0  0  0  0  0  0  0  0  0
    3.4748    0.2852    1.3087 N   0  0  0  0  0  0  0  0  0  0  0  0
   -8.8770    0.6712   -0.6792 H   0  0  0  0  0  0  0  0  0  0  0  0
   -7.8676    1.3564    0.6022 H   0  0  0  0  0  0  0  0  0  0  0  0
   -7.3716    1.4796   -1.1324 H   0  0  0  0  0  0  0  0  0  0  0  0
   -5.5557    1.7104    0.3452 H   0  0  0  0  0  0  0  0  0  0  0  0
   -3.5719    1.5802    3.0118 H   0  0  0  0  0  0  0  0  0  0  0  0
   -2.5573    2.9633    2.5466 H   0  0  0  0  0  0  0  0  0  0  0  0
   -4.2760    2.9725    2.1161 H   0  0  0  0  0  0  0  0  0  0  0  0
   -3.4170   -2.7739    0.4809 H   0  0  0  0  0  0  0  0  0  0  0  0
   -1.8152   -0.6042   -1.6709 H   0  0  0  0  0  0  0  0  0  0  0  0
   -0.6308    0.6309   -2.0686 H   0  0  0  0  0  0  0  0  0  0  0  0
    0.1487   -1.5308   -2.9316 H   0  0  0  0  0  0  0  0  0  0  0  0
    0.0375   -2.2979   -1.3510 H   0  0  0  0  0  0  0  0  0  0  0  0
    1.5483   -1.5799    0.3767 H   0  0  0  0  0  0  0  0  0  0  0  0
    1.0227    1.3984   -0.2766 H   0  0  0  0  0  0  0  0  0  0  0  0
    0.9013    0.7127    1.3323 H   0  0  0  0  0  0  0  0  0  0  0  0
    3.9678   -1.0364   -1.7644 H   0  0  0  0  0  0  0  0  0  0  0  0
    6.4030   -0.9723   -2.3774 H   0  0  0  0  0  0  0  0  0  0  0  0
    9.2291    0.6511    0.3921 H   0  0  0  0  0  0  0  0  0  0  0  0
    7.4044    1.1465    2.0063 H   0  0  0  0  0  0  0  0  0  0  0  0
    4.9181    1.0332    2.5681 H   0  0  0  0  0  0  0  0  0  0  0  0
  1  2  1  0
  2  3  1  0
  3  4  2  0
  4  5  1  0
  5  6  1  0
  6  7  1  0
  5  8  2  0
  8  9  1  0
  9 10  2  0
 10 11  1  0
  8 12  1  0
 12 13  2  0
 12 14  2  0
 12 15  1  0
 15 16  1  0
 16 17  1  0
 17 18  1  0
 18 19  1  0
 19 20  1  0
 19 21  1  0
 21 22  2  0
 22 23  1  0
 23 24  2  0
 24 25  1  0
 25 26  1  0
 25 27  2  0
 27 28  1  0
 28 29  2  0
 29 30  1  0
 30 31  2  0
 10  3  1  0
 20 15  1  0
 31 21  1  0
 29 23  1  0
  1 32  1  0
  1 33  1  0
  1 34  1  0
  4 35  1  0
  7 36  1  0
  7 37  1  0
  7 38  1  0
  9 39  1  0
 16 40  1  0
 16 41  1  0
 17 42  1  0
 17 43  1  0
 19 44  1  0
 20 45  1  0
 20 46  1  0
 22 47  1  0
 24 48  1  0
 27 49  1  0
 28 50  1  0
 30 51  1  0
M  END
>  <Unnamed: 0>  (124) 
800

>  <ID>  (124) 
TRAIN_0800

>  <Canonical_Smiles>  (124) 
COc1cc(OC)c(cc1Cl)S(=O)(=O)N2CCOC(C2)c3cc4cc(F)ccc4cn3

>  <Inhibition>  (124) 
69.025107

>  <TDC_conf_true_inhibitor>  (124) 
1

>  <TDC_conf_non_inhibitor>  (124) 
0

>  <split>  (124) 
1

$$$$
124
     RDKit          3D

 31 33  0  0  0  0  0  0  0  0999 V2000
    5.5614   -1.5381    1.5588 O   0  0  0  0  0  1  0  0  0  0  0  0
    5.3021   -1.2844    0.3736 N   0  0  0  0  0  4  0  0  0  0  0  0
    6.0686   -1.5048   -0.5753 O   0  0  0  0  0  0  0  0  0  0  0  0
    3.9985   -0.6802    0.0727 C   0  0  0  0  0  0  0  0  0  0  0  0
    3.6625   -0.3784   -1.2519 C   0  0  0  0  0  0  0  0  0  0  0  0
    2.4197    0.1963   -1.5317 C   0  0  0  0  0  0  0  0  0  0  0  0
    1.5029    0.4772   -0.5015 C   0  0  0  0  0  0  0  0  0  0  0  0
    1.8599    0.1632    0.8211 C   0  0  0  0  0  0  0  0  0  0  0  0
    3.1006   -0.4120    1.1123 C   0  0  0  0  0  0  0  0  0  0  0  0
    0.1604    1.0987   -0.8524 C   0  0  0  0  0  0  0  0  0  0  0  0
   -0.5506    0.2122   -1.7246 O   0  0  0  0  0  0  0  0  0  0  0  0
   -1.4517   -0.6322   -1.0037 C   0  0  0  0  0  0  0  0  0  0  0  0
   -2.5442    0.2170   -0.3597 C   0  0  0  0  0  0  0  0  0  0  0  0
   -1.9723    1.5788    0.0492 C   0  0  0  0  0  0  0  0  0  0  0  0
   -0.5750    1.4544    0.3226 O   0  0  0  0  0  0  0  0  0  0  0  0
   -3.9874    0.4819   -1.4686 S   0  0  0  0  0  0  0  0  0  0  0  0
   -5.1328    0.0035   -0.2431 C   0  0  0  0  0  0  0  0  0  0  0  0
   -6.3333   -0.0791   -0.4313 O   0  0  0  0  0  0  0  0  0  0  0  0
   -4.4946   -0.3122    0.9070 N   0  0  0  0  0  0  0  0  0  0  0  0
   -3.1432   -0.4813    0.8466 C   0  0  0  0  0  0  0  0  0  0  0  0
   -2.5220   -1.1207    1.6844 O   0  0  0  0  0  0  0  0  0  0  0  0
    4.3475   -0.5851   -2.0717 H   0  0  0  0  0  0  0  0  0  0  0  0
    2.1583    0.4198   -2.5657 H   0  0  0  0  0  0  0  0  0  0  0  0
    1.1698    0.3625    1.6401 H   0  0  0  0  0  0  0  0  0  0  0  0
    3.3459   -0.6433    2.1469 H   0  0  0  0  0  0  0  0  0  0  0  0
    0.3539    2.0233   -1.4095 H   0  0  0  0  0  0  0  0  0  0  0  0
   -0.8788   -1.2096   -0.2673 H   0  0  0  0  0  0  0  0  0  0  0  0
   -1.8648   -1.3653   -1.7059 H   0  0  0  0  0  0  0  0  0  0  0  0
   -2.4480    1.9638    0.9584 H   0  0  0  0  0  0  0  0  0  0  0  0
   -2.0917    2.3450   -0.7277 H   0  0  0  0  0  0  0  0  0  0  0  0
   -5.0213   -0.7710    1.6352 H   0  0  0  0  0  0  0  0  0  0  0  0
  1  2  1  0
  2  3  2  0
  2  4  1  0
  4  5  2  0
  5  6  1  0
  6  7  2  0
  7  8  1  0
  8  9  2  0
  7 10  1  0
 10 11  1  0
 11 12  1  0
 12 13  1  0
 13 14  1  0
 14 15  1  0
 13 16  1  0
 16 17  1  0
 17 18  2  0
 17 19  1  0
 19 20  1  0
 20 21  2  0
  9  4  1  0
 15 10  1  0
 20 13  1  0
  5 22  1  0
  6 23  1  0
  8 24  1  0
  9 25  1  0
 10 26  1  0
 12 27  1  0
 12 28  1  0
 14 29  1  0
 14 30  1  0
 19 31  1  0
M  CHG  2   1  -1   2   1
M  END
>  <Unnamed: 0>  (125) 
815

>  <ID>  (125) 
TRAIN_0815

>  <Canonical_Smiles>  (125) 
[O-][N+](=O)c1ccc(cc1)C2OCC3(CO2)SC(=O)NC3=O

>  <Inhibition>  (125) 
16.096937

>  <TDC_conf_true_inhibitor>  (125) 
0

>  <TDC_conf_non_inhibitor>  (125) 
1

>  <split>  (125) 
1

$$$$
125
     RDKit          3D

 40 40  0  0  0  0  0  0  0  0999 V2000
    3.0717    3.7332   -0.6329 C   0  0  0  0  0  0  0  0  0  0  0  0
    2.5221    2.3579   -0.9609 C   0  0  0  0  0  0  0  0  0  0  0  0
    3.4080    1.3398   -0.4726 O   0  0  0  0  0  0  0  0  0  0  0  0
    3.2070    0.9478    0.8204 C   0  0  0  0  0  0  0  0  0  0  0  0
    2.3833    1.4418    1.5798 O   0  0  0  0  0  0  0  0  0  0  0  0
    4.1893   -0.1548    1.1650 C   0  0  0  0  0  0  0  0  0  0  0  0
    3.7908   -0.9541    2.7529 S   0  0  0  0  0  0  0  0  0  0  0  0
    2.1815   -1.4947    2.3771 C   0  0  0  0  0  0  0  0  0  0  0  0
    1.8652   -1.9340    1.2064 N   0  0  0  0  0  0  0  0  0  0  0  0
    0.5491   -2.3513    0.9579 N   0  0  0  0  0  0  0  0  0  0  0  0
   -0.3464   -2.2660    1.9014 C   0  0  0  0  0  0  0  0  0  0  0  0
   -1.6665   -2.6490    1.7202 N   0  0  0  0  0  0  0  0  0  0  0  0
   -2.2506   -2.6417    0.3789 C   0  0  0  0  0  0  0  0  0  0  0  0
   -2.4821   -1.2207   -0.1214 C   0  0  0  0  0  0  0  0  0  0  0  0
   -2.5282   -0.2273    0.5949 O   0  0  0  0  0  0  0  0  0  0  0  0
   -2.6828   -1.2281   -1.4704 O   0  0  0  0  0  0  0  0  0  0  0  0
   -2.9015    0.0555   -2.0845 C   0  0  0  0  0  0  0  0  0  0  0  0
   -2.4600   -0.0620   -3.5380 C   0  0  0  0  0  0  0  0  0  0  0  0
   -4.3796    0.4173   -1.9955 C   0  0  0  0  0  0  0  0  0  0  0  0
    0.0359   -1.7195    3.2806 C   0  0  0  0  0  0  0  0  0  0  0  0
   -0.8193   -1.5911    4.1461 O   0  0  0  0  0  0  0  0  0  0  0  0
    1.3443   -1.4033    3.4305 N   0  0  0  0  0  0  0  0  0  0  0  0
    4.0827    3.8502   -1.0366 H   0  0  0  0  0  0  0  0  0  0  0  0
    2.4319    4.5160   -1.0500 H   0  0  0  0  0  0  0  0  0  0  0  0
    3.1425    3.8803    0.4493 H   0  0  0  0  0  0  0  0  0  0  0  0
    1.5079    2.2260   -0.5673 H   0  0  0  0  0  0  0  0  0  0  0  0
    2.4622    2.2348   -2.0475 H   0  0  0  0  0  0  0  0  0  0  0  0
    5.1871    0.2860    1.2441 H   0  0  0  0  0  0  0  0  0  0  0  0
    4.1944   -0.9091    0.3721 H   0  0  0  0  0  0  0  0  0  0  0  0
   -2.2788   -2.2432    2.4303 H   0  0  0  0  0  0  0  0  0  0  0  0
   -3.2204   -3.1480    0.4130 H   0  0  0  0  0  0  0  0  0  0  0  0
   -1.6024   -3.1800   -0.3204 H   0  0  0  0  0  0  0  0  0  0  0  0
   -2.2893    0.8245   -1.5975 H   0  0  0  0  0  0  0  0  0  0  0  0
   -3.0219   -0.8458   -4.0584 H   0  0  0  0  0  0  0  0  0  0  0  0
   -2.5960    0.8823   -4.0735 H   0  0  0  0  0  0  0  0  0  0  0  0
   -1.4029   -0.3443   -3.5925 H   0  0  0  0  0  0  0  0  0  0  0  0
   -4.5851    1.3698   -2.4936 H   0  0  0  0  0  0  0  0  0  0  0  0
   -5.0014   -0.3603   -2.4528 H   0  0  0  0  0  0  0  0  0  0  0  0
   -4.6987    0.4994   -0.9514 H   0  0  0  0  0  0  0  0  0  0  0  0
    1.6567   -0.9976    4.2969 H   0  0  0  0  0  0  0  0  0  0  0  0
  1  2  1  0
  2  3  1  0
  3  4  1  0
  4  5  2  0
  4  6  1  0
  6  7  1  0
  7  8  1  0
  8  9  2  0
  9 10  1  0
 10 11  2  0
 11 12  1  0
 12 13  1  0
 13 14  1  0
 14 15  2  0
 14 16  1  0
 16 17  1  0
 17 18  1  0
 17 19  1  0
 11 20  1  0
 20 21  2  0
 20 22  1  0
 22  8  1  0
  1 23  1  0
  1 24  1  0
  1 25  1  0
  2 26  1  0
  2 27  1  0
  6 28  1  0
  6 29  1  0
 12 30  1  0
 13 31  1  0
 13 32  1  0
 17 33  1  0
 18 34  1  0
 18 35  1  0
 18 36  1  0
 19 37  1  0
 19 38  1  0
 19 39  1  0
 22 40  1  0
M  END
>  <Unnamed: 0>  (126) 
820

>  <ID>  (126) 
TRAIN_0820

>  <Canonical_Smiles>  (126) 
CCOC(=O)CSC1=NN=C(NCC(=O)OC(C)C)C(=O)N1

>  <Inhibition>  (126) 
29.33698

>  <TDC_conf_true_inhibitor>  (126) 
0

>  <TDC_conf_non_inhibitor>  (126) 
1

>  <split>  (126) 
1

$$$$
126
     RDKit          3D

 33 33  0  0  0  0  0  0  0  0999 V2000
   -6.5979    1.5370    0.8555 C   0  0  0  0  0  0  0  0  0  0  0  0
   -5.2080    1.2569    1.0272 O   0  0  0  0  0  0  0  0  0  0  0  0
   -4.7026    0.3739    0.1199 C   0  0  0  0  0  0  0  0  0  0  0  0
   -5.3494   -0.1751   -0.7611 O   0  0  0  0  0  0  0  0  0  0  0  0
   -3.2387    0.1516    0.3910 C   0  0  0  0  0  0  0  0  0  0  0  0
   -2.6019   -0.6491   -0.7366 C   0  0  0  0  0  0  0  0  0  0  0  0
   -1.1987   -0.9306   -0.4877 N   0  0  0  0  0  0  0  0  0  0  0  0
   -0.2248    0.0299   -0.6574 C   0  0  0  0  0  0  0  0  0  0  0  0
   -0.4695    1.1881   -0.9740 O   0  0  0  0  0  0  0  0  0  0  0  0
    1.1713   -0.4911   -0.3930 C   0  0  0  0  0  0  0  0  0  0  0  0
    2.2264    0.5769   -0.6445 C   0  0  0  0  0  0  0  0  0  0  0  0
    3.5962    0.0259   -0.3568 C   0  0  0  0  0  0  0  0  0  0  0  0
    4.2956   -0.5266   -1.2994 N   0  0  0  0  0  0  0  0  0  0  0  0
    5.5683   -1.0362   -0.9852 N   0  0  0  0  0  0  0  0  0  0  0  0
    6.0290   -0.9059    0.2102 C   0  0  0  0  0  0  0  0  0  0  0  0
    7.2491   -1.3728    0.5181 O   0  0  0  0  0  0  0  0  0  0  0  0
    5.3786   -0.3252    1.2413 N   0  0  0  0  0  0  0  0  0  0  0  0
    4.1007    0.1025    1.0653 C   0  0  0  0  0  0  0  0  0  0  0  0
    3.3859    0.4934    1.9745 O   0  0  0  0  0  0  0  0  0  0  0  0
   -6.8942    2.2619    1.6186 H   0  0  0  0  0  0  0  0  0  0  0  0
   -6.7822    1.9765   -0.1299 H   0  0  0  0  0  0  0  0  0  0  0  0
   -7.1912    0.6275    0.9924 H   0  0  0  0  0  0  0  0  0  0  0  0
   -2.7481    1.1263    0.4868 H   0  0  0  0  0  0  0  0  0  0  0  0
   -3.1380   -0.3848    1.3410 H   0  0  0  0  0  0  0  0  0  0  0  0
   -2.6848   -0.1089   -1.6872 H   0  0  0  0  0  0  0  0  0  0  0  0
   -3.1023   -1.6162   -0.8585 H   0  0  0  0  0  0  0  0  0  0  0  0
   -0.9253   -1.8842   -0.2858 H   0  0  0  0  0  0  0  0  0  0  0  0
    1.2181   -0.8381    0.6459 H   0  0  0  0  0  0  0  0  0  0  0  0
    1.3508   -1.3568   -1.0419 H   0  0  0  0  0  0  0  0  0  0  0  0
    2.1922    0.9057   -1.6903 H   0  0  0  0  0  0  0  0  0  0  0  0
    2.0504    1.4645   -0.0266 H   0  0  0  0  0  0  0  0  0  0  0  0
    7.5081   -1.1928    1.4302 H   0  0  0  0  0  0  0  0  0  0  0  0
    5.7371   -0.3040    2.1795 H   0  0  0  0  0  0  0  0  0  0  0  0
  1  2  1  0
  2  3  1  0
  3  4  2  0
  3  5  1  0
  5  6  1  0
  6  7  1  0
  7  8  1  0
  8  9  2  0
  8 10  1  0
 10 11  1  0
 11 12  1  0
 12 13  2  0
 13 14  1  0
 14 15  2  0
 15 16  1  0
 15 17  1  0
 17 18  1  0
 18 19  2  0
 18 12  1  0
  1 20  1  0
  1 21  1  0
  1 22  1  0
  5 23  1  0
  5 24  1  0
  6 25  1  0
  6 26  1  0
  7 27  1  0
 10 28  1  0
 10 29  1  0
 11 30  1  0
 11 31  1  0
 16 32  1  0
 17 33  1  0
M  END
>  <Unnamed: 0>  (127) 
1622

>  <ID>  (127) 
TRAIN_1622

>  <Canonical_Smiles>  (127) 
COC(=O)CCNC(=O)CCC1=NN=C(O)NC1=O

>  <Inhibition>  (127) 
12.230078

>  <TDC_conf_true_inhibitor>  (127) 
0

>  <TDC_conf_non_inhibitor>  (127) 
1

>  <split>  (127) 
1

$$$$
127
     RDKit          3D

 42 44  0  0  0  0  0  0  0  0999 V2000
    6.5852    0.4683   -0.8005 O   0  0  0  0  0  0  0  0  0  0  0  0
    5.5515    0.3837    0.0575 C   0  0  0  0  0  0  0  0  0  0  0  0
    5.6889    0.6791    1.2325 O   0  0  0  0  0  0  0  0  0  0  0  0
    4.2975   -0.0934   -0.6138 C   0  0  0  0  0  0  0  0  0  0  0  0
    3.1544   -0.1956    0.3883 C   0  0  0  0  0  0  0  0  0  0  0  0
    1.8739   -0.6580   -0.2705 C   0  0  0  0  0  0  0  0  0  0  0  0
    1.7904   -0.9328   -1.4623 O   0  0  0  0  0  0  0  0  0  0  0  0
    0.8225   -0.7391    0.6377 N   0  0  0  0  0  0  0  0  0  0  0  0
   -0.4995   -0.8584    0.1243 N   0  0  0  0  0  0  0  0  0  0  0  0
   -1.0398    0.2461   -0.7010 C   0  0  0  0  0  0  0  0  0  0  0  0
   -2.4684    0.1742   -1.0520 N   0  0  0  0  0  0  0  0  0  0  0  0
   -3.0581   -0.9497   -0.8223 C   0  0  0  0  0  0  0  0  0  0  0  0
   -4.4934   -1.0763   -1.2169 C   0  0  0  0  0  0  0  0  0  0  0  0
   -5.1601   -2.2271   -1.0498 C   0  0  0  0  0  0  0  0  0  0  0  0
   -4.5408   -3.4003   -0.4810 C   0  0  0  0  0  0  0  0  0  0  0  0
   -3.2658   -3.3783   -0.0698 C   0  0  0  0  0  0  0  0  0  0  0  0
   -2.4695   -2.1751   -0.1907 C   0  0  0  0  0  0  0  0  0  0  0  0
   -1.2109   -2.0296    0.2475 C   0  0  0  0  0  0  0  0  0  0  0  0
   -0.5499   -3.0671    0.8642 O   0  0  0  0  0  0  0  0  0  0  0  0
   -0.7619    1.5865   -0.0157 C   0  0  0  0  0  0  0  0  0  0  0  0
   -1.4202    1.9294    1.1801 C   0  0  0  0  0  0  0  0  0  0  0  0
   -1.1487    3.1416    1.8152 C   0  0  0  0  0  0  0  0  0  0  0  0
   -0.2208    4.0135    1.2582 C   0  0  0  0  0  0  0  0  0  0  0  0
    0.0413    5.1762    1.8694 F   0  0  0  0  0  0  0  0  0  0  0  0
    0.4404    3.6984    0.0768 C   0  0  0  0  0  0  0  0  0  0  0  0
    0.1704    2.4872   -0.5620 C   0  0  0  0  0  0  0  0  0  0  0  0
    7.3349    0.7859   -0.2544 H   0  0  0  0  0  0  0  0  0  0  0  0
    4.4934   -1.0737   -1.0628 H   0  0  0  0  0  0  0  0  0  0  0  0
    4.0395    0.6149   -1.4091 H   0  0  0  0  0  0  0  0  0  0  0  0
    2.9724    0.7811    0.8529 H   0  0  0  0  0  0  0  0  0  0  0  0
    3.4108   -0.9052    1.1842 H   0  0  0  0  0  0  0  0  0  0  0  0
    0.8669   -0.1727    1.4836 H   0  0  0  0  0  0  0  0  0  0  0  0
   -0.5046    0.2361   -1.6592 H   0  0  0  0  0  0  0  0  0  0  0  0
   -4.9594   -0.1994   -1.6502 H   0  0  0  0  0  0  0  0  0  0  0  0
   -6.2016   -2.3039   -1.3479 H   0  0  0  0  0  0  0  0  0  0  0  0
   -5.1388   -4.3020   -0.3891 H   0  0  0  0  0  0  0  0  0  0  0  0
   -2.8067   -4.2611    0.3652 H   0  0  0  0  0  0  0  0  0  0  0  0
    0.3543   -2.7124    0.9319 H   0  0  0  0  0  0  0  0  0  0  0  0
   -2.1528    1.2482    1.6092 H   0  0  0  0  0  0  0  0  0  0  0  0
   -1.6585    3.4132    2.7338 H   0  0  0  0  0  0  0  0  0  0  0  0
    1.1555    4.4000   -0.3413 H   0  0  0  0  0  0  0  0  0  0  0  0
    0.6862    2.2475   -1.4903 H   0  0  0  0  0  0  0  0  0  0  0  0
  1  2  1  0
  2  3  2  0
  2  4  1  0
  4  5  1  0
  5  6  1  0
  6  7  2  0
  6  8  1  0
  8  9  1  0
  9 10  1  0
 10 11  1  0
 11 12  2  0
 12 13  1  0
 13 14  2  0
 14 15  1  0
 15 16  2  0
 16 17  1  0
 17 18  2  0
 18 19  1  0
 10 20  1  0
 20 21  2  0
 21 22  1  0
 22 23  2  0
 23 24  1  0
 23 25  1  0
 25 26  2  0
 18  9  1  0
 17 12  1  0
 26 20  1  0
  1 27  1  0
  4 28  1  0
  4 29  1  0
  5 30  1  0
  5 31  1  0
  8 32  1  0
 10 33  1  0
 13 34  1  0
 14 35  1  0
 15 36  1  0
 16 37  1  0
 19 38  1  0
 21 39  1  0
 22 40  1  0
 25 41  1  0
 26 42  1  0
M  END
>  <Unnamed: 0>  (128) 
823

>  <ID>  (128) 
TRAIN_0823

>  <Canonical_Smiles>  (128) 
OC(=O)CCC(=O)NN1C(N=C2C=CC=CC2=C1O)c3ccc(F)cc3

>  <Inhibition>  (128) 
17.394467

>  <TDC_conf_true_inhibitor>  (128) 
0

>  <TDC_conf_non_inhibitor>  (128) 
1

>  <split>  (128) 
1

$$$$
128
     RDKit          3D

 42 44  0  0  0  0  0  0  0  0999 V2000
   -2.6059    0.7268   -1.2311 C   0  0  0  0  0  0  0  0  0  0  0  0
   -2.9981    0.5062    0.2298 C   0  0  0  0  0  0  0  0  0  0  0  0
   -3.7984    1.7255    0.7102 C   0  0  0  0  0  0  0  0  0  0  0  0
   -1.7844    0.2999    1.1605 C   0  0  0  0  0  0  0  0  0  0  0  0
   -1.0354   -1.0538    1.1339 C   0  0  0  0  0  0  0  0  0  0  0  0
   -1.9163   -2.2663    1.4200 C   0  0  0  0  0  0  0  0  0  0  0  0
   -2.5881   -2.8354    0.2011 C   0  0  0  0  0  0  0  0  0  0  0  0
   -3.7345   -3.2718    0.2220 O   0  0  0  0  0  0  0  0  0  0  0  0
   -1.7929   -2.9383   -0.9296 O   0  0  0  0  0  0  0  0  0  0  0  0
   -0.5686   -2.2498   -1.0311 C   0  0  0  0  0  0  0  0  0  0  0  0
    0.2046   -2.5252   -2.1757 C   0  0  0  0  0  0  0  0  0  0  0  0
    1.4010   -1.8411   -2.3922 C   0  0  0  0  0  0  0  0  0  0  0  0
    1.7654   -0.9009   -1.4478 C   0  0  0  0  0  0  0  0  0  0  0  0
    2.9372   -0.0369   -1.3972 C   0  0  0  0  0  0  0  0  0  0  0  0
    3.8283    0.0009   -2.2164 O   0  0  0  0  0  0  0  0  0  0  0  0
    2.7423    0.7369   -0.1313 C   0  0  0  0  0  0  0  0  0  0  0  0
    3.5429    1.6844    0.3917 C   0  0  0  0  0  0  0  0  0  0  0  0
    3.2033    2.3782    1.6864 C   0  0  0  0  0  0  0  0  0  0  0  0
    4.8322    2.1604   -0.2215 C   0  0  0  0  0  0  0  0  0  0  0  0
    1.5517    0.3348    0.4858 O   0  0  0  0  0  0  0  0  0  0  0  0
    0.9960   -0.6311   -0.3195 C   0  0  0  0  0  0  0  0  0  0  0  0
   -0.1928   -1.2986   -0.0784 C   0  0  0  0  0  0  0  0  0  0  0  0
   -2.2072   -0.1801   -1.6858 H   0  0  0  0  0  0  0  0  0  0  0  0
   -3.4776    1.0178   -1.8278 H   0  0  0  0  0  0  0  0  0  0  0  0
   -1.8554    1.5186   -1.3277 H   0  0  0  0  0  0  0  0  0  0  0  0
   -3.6675   -0.3575    0.2904 H   0  0  0  0  0  0  0  0  0  0  0  0
   -3.1918    2.6371    0.6778 H   0  0  0  0  0  0  0  0  0  0  0  0
   -4.6829    1.8835    0.0839 H   0  0  0  0  0  0  0  0  0  0  0  0
   -4.1451    1.5838    1.7395 H   0  0  0  0  0  0  0  0  0  0  0  0
   -1.0679    1.1153    0.9936 H   0  0  0  0  0  0  0  0  0  0  0  0
   -2.1353    0.4307    2.1944 H   0  0  0  0  0  0  0  0  0  0  0  0
   -0.3366   -1.0061    1.9834 H   0  0  0  0  0  0  0  0  0  0  0  0
   -1.3134   -3.0791    1.8463 H   0  0  0  0  0  0  0  0  0  0  0  0
   -2.6818   -2.0134    2.1626 H   0  0  0  0  0  0  0  0  0  0  0  0
   -0.1380   -3.2644   -2.8965 H   0  0  0  0  0  0  0  0  0  0  0  0
    2.0177   -2.0297   -3.2648 H   0  0  0  0  0  0  0  0  0  0  0  0
    3.9950    2.2086    2.4238 H   0  0  0  0  0  0  0  0  0  0  0  0
    3.1081    3.4568    1.5223 H   0  0  0  0  0  0  0  0  0  0  0  0
    2.2644    2.0300    2.1275 H   0  0  0  0  0  0  0  0  0  0  0  0
    5.6619    1.9878    0.4725 H   0  0  0  0  0  0  0  0  0  0  0  0
    4.7744    3.2351   -0.4255 H   0  0  0  0  0  0  0  0  0  0  0  0
    5.0896    1.6685   -1.1595 H   0  0  0  0  0  0  0  0  0  0  0  0
  1  2  1  0
  2  3  1  0
  2  4  1  0
  4  5  1  0
  5  6  1  0
  6  7  1  0
  7  8  2  0
  7  9  1  0
  9 10  1  0
 10 11  2  0
 11 12  1  0
 12 13  2  0
 13 14  1  0
 14 15  2  0
 14 16  1  0
 16 17  2  3
 17 18  1  0
 17 19  1  0
 16 20  1  0
 20 21  1  0
 21 22  2  0
 22  5  1  0
 22 10  1  0
 21 13  1  0
  1 23  1  0
  1 24  1  0
  1 25  1  0
  2 26  1  0
  3 27  1  0
  3 28  1  0
  3 29  1  0
  4 30  1  0
  4 31  1  0
  5 32  1  0
  6 33  1  0
  6 34  1  0
 11 35  1  0
 12 36  1  0
 18 37  1  0
 18 38  1  0
 18 39  1  0
 19 40  1  0
 19 41  1  0
 19 42  1  0
M  END
>  <Unnamed: 0>  (129) 
824

>  <ID>  (129) 
TRAIN_0824

>  <Canonical_Smiles>  (129) 
CC(C)CC1CC(=O)Oc2ccc3C(=O)C(=C(C)C)Oc3c12

>  <Inhibition>  (129) 
11.75923

>  <TDC_conf_true_inhibitor>  (129) 
0

>  <TDC_conf_non_inhibitor>  (129) 
1

>  <split>  (129) 
1

$$$$
129
     RDKit          3D

 47 50  0  0  0  0  0  0  0  0999 V2000
   -1.5702   -2.4629   -2.9654 C   0  0  0  0  0  0  0  0  0  0  0  0
   -2.8819   -2.0266   -2.6267 O   0  0  0  0  0  0  0  0  0  0  0  0
   -2.9755   -0.9791   -1.7500 C   0  0  0  0  0  0  0  0  0  0  0  0
   -4.2500   -0.4276   -1.6379 C   0  0  0  0  0  0  0  0  0  0  0  0
   -4.4689    0.6625   -0.8018 C   0  0  0  0  0  0  0  0  0  0  0  0
   -3.4106    1.1982   -0.0659 C   0  0  0  0  0  0  0  0  0  0  0  0
   -3.7387    2.2922    0.7046 O   0  0  0  0  0  0  0  0  0  0  0  0
   -2.5784    3.0486    1.0766 C   0  0  0  0  0  0  0  0  0  0  0  0
   -3.0226    4.1017    2.0837 C   0  0  0  0  0  0  0  0  0  0  0  0
   -1.5197    2.1243    1.6810 C   0  0  0  0  0  0  0  0  0  0  0  0
   -1.0674    1.1539    0.6755 N   0  0  0  0  0  0  0  0  0  0  0  0
    0.0590    0.2960    1.0680 C   0  0  0  0  0  0  0  0  0  0  0  0
    1.2249    0.3267    0.1425 C   0  0  0  0  0  0  0  0  0  0  0  0
    1.4157    1.1024   -0.9828 C   0  0  0  0  0  0  0  0  0  0  0  0
    2.6090    0.8380   -1.5805 N   0  0  0  0  0  0  0  0  0  0  0  0
    3.1844   -0.0894   -0.8473 C   0  0  0  0  0  0  0  0  0  0  0  0
    4.3996   -0.6683   -1.0611 N   0  0  0  0  0  0  0  0  0  0  0  0
    4.7866   -1.5593   -0.2032 C   0  0  0  0  0  0  0  0  0  0  0  0
    6.1319   -2.2072   -0.4192 C   0  0  0  0  0  0  0  0  0  0  0  0
    4.0040   -1.9912    0.9913 C   0  0  0  0  0  0  0  0  0  0  0  0
    2.8029   -1.4115    1.1798 C   0  0  0  0  0  0  0  0  0  0  0  0
    1.9720   -1.7963    2.3643 C   0  0  0  0  0  0  0  0  0  0  0  0
    2.3758   -0.4439    0.2469 N   0  0  0  0  0  0  0  0  0  0  0  0
   -2.1172    0.6265   -0.1033 C   0  0  0  0  0  0  0  0  0  0  0  0
   -1.9256   -0.4556   -0.9841 C   0  0  0  0  0  0  0  0  0  0  0  0
   -1.0851   -2.9423   -2.1087 H   0  0  0  0  0  0  0  0  0  0  0  0
   -1.6613   -3.2117   -3.7581 H   0  0  0  0  0  0  0  0  0  0  0  0
   -0.9636   -1.6382   -3.3541 H   0  0  0  0  0  0  0  0  0  0  0  0
   -5.0714   -0.8362   -2.2207 H   0  0  0  0  0  0  0  0  0  0  0  0
   -5.4577    1.1067   -0.7340 H   0  0  0  0  0  0  0  0  0  0  0  0
   -2.1900    3.5576    0.1836 H   0  0  0  0  0  0  0  0  0  0  0  0
   -3.7960    4.7434    1.6479 H   0  0  0  0  0  0  0  0  0  0  0  0
   -3.4653    3.6348    2.9705 H   0  0  0  0  0  0  0  0  0  0  0  0
   -2.1840    4.7305    2.3984 H   0  0  0  0  0  0  0  0  0  0  0  0
   -0.6640    2.7178    2.0242 H   0  0  0  0  0  0  0  0  0  0  0  0
   -1.9278    1.5833    2.5451 H   0  0  0  0  0  0  0  0  0  0  0  0
    0.4196    0.6267    2.0505 H   0  0  0  0  0  0  0  0  0  0  0  0
   -0.2977   -0.7299    1.2096 H   0  0  0  0  0  0  0  0  0  0  0  0
    0.7332    1.8376   -1.3929 H   0  0  0  0  0  0  0  0  0  0  0  0
    6.1672   -2.6440   -1.4220 H   0  0  0  0  0  0  0  0  0  0  0  0
    6.9142   -1.4468   -0.3340 H   0  0  0  0  0  0  0  0  0  0  0  0
    6.3221   -2.9951    0.3142 H   0  0  0  0  0  0  0  0  0  0  0  0
    4.4248   -2.7388    1.6506 H   0  0  0  0  0  0  0  0  0  0  0  0
    2.4854   -2.5281    2.9996 H   0  0  0  0  0  0  0  0  0  0  0  0
    1.0335   -2.2611    2.0500 H   0  0  0  0  0  0  0  0  0  0  0  0
    1.7629   -0.9288    2.9960 H   0  0  0  0  0  0  0  0  0  0  0  0
   -0.9383   -0.8894   -1.0781 H   0  0  0  0  0  0  0  0  0  0  0  0
  1  2  1  0
  2  3  1  0
  3  4  2  0
  4  5  1  0
  5  6  2  0
  6  7  1  0
  7  8  1  0
  8  9  1  0
  8 10  1  0
 10 11  1  0
 11 12  1  0
 12 13  1  0
 13 14  2  0
 14 15  1  0
 15 16  2  0
 16 17  1  0
 17 18  2  0
 18 19  1  0
 18 20  1  0
 20 21  2  0
 21 22  1  0
 21 23  1  0
 11 24  1  0
 24 25  2  0
 25  3  1  0
 24  6  1  0
 23 13  1  0
 23 16  1  0
  1 26  1  0
  1 27  1  0
  1 28  1  0
  4 29  1  0
  5 30  1  0
  8 31  1  0
  9 32  1  0
  9 33  1  0
  9 34  1  0
 10 35  1  0
 10 36  1  0
 12 37  1  0
 12 38  1  0
 14 39  1  0
 19 40  1  0
 19 41  1  0
 19 42  1  0
 20 43  1  0
 22 44  1  0
 22 45  1  0
 22 46  1  0
 25 47  1  0
M  END
>  <Unnamed: 0>  (130) 
826

>  <ID>  (130) 
TRAIN_0826

>  <Canonical_Smiles>  (130) 
COc1ccc2OC(C)CN(Cc3cnc4nc(C)cc(C)n34)c2c1

>  <Inhibition>  (130) 
20.108806

>  <TDC_conf_true_inhibitor>  (130) 
0

>  <TDC_conf_non_inhibitor>  (130) 
1

>  <split>  (130) 
1

$$$$
130
     RDKit          3D

 59 61  0  0  0  0  0  0  0  0999 V2000
    1.5380    0.3764   -0.7226 O   0  0  0  0  0  0  0  0  0  0  0  0
    0.7539   -0.1723    0.2158 C   0  0  0  0  0  0  0  0  0  0  0  0
    1.2071   -0.8592    1.1102 O   0  0  0  0  0  0  0  0  0  0  0  0
   -0.7539    0.1722    0.0174 C   0  0  0  0  0  0  0  0  0  0  0  0
   -1.2071    0.8589   -0.8771 O   0  0  0  0  0  0  0  0  0  0  0  0
   -1.5379   -0.3762    0.9559 O   0  0  0  0  0  0  0  0  0  0  0  0
   -2.9049   -0.4055    0.2766 C   0  0  0  0  0  0  0  0  0  0  0  0
   -3.8884   -0.0711   -0.8739 C   0  0  0  0  0  0  0  0  0  0  0  0
   -5.1094   -1.0106   -0.8457 C   0  0  0  0  0  0  0  0  0  0  0  0
   -6.0192   -0.7768    0.3642 C   0  0  0  0  0  0  0  0  0  0  0  0
   -6.2190    0.6760    0.6776 C   0  0  0  0  0  0  0  0  0  0  0  0
   -5.4843    1.6531    0.1267 C   0  0  0  0  0  0  0  0  0  0  0  0
   -4.3623    1.3969   -0.8408 C   0  0  0  0  0  0  0  0  0  0  0  0
   -1.6467    0.3616    0.2414 N   0  0  0  0  0  0  0  0  0  0  0  0
   -0.8388    0.1372    1.4598 C   0  0  0  0  0  0  0  0  0  0  0  0
    0.3213   -0.8680    1.2846 C   0  0  0  0  0  0  0  0  0  0  0  0
    1.2840   -0.5164    0.2182 N   0  0  0  0  0  0  0  0  0  0  0  0
    2.5130    0.0760    0.7702 C   0  0  0  0  0  0  0  0  0  0  0  0
    3.6126    0.3199   -0.2795 C   0  0  0  0  0  0  0  0  0  0  0  0
    4.0832   -0.9837   -1.0055 C   0  0  0  0  0  0  0  0  0  0  0  0
    5.6062   -0.9919   -0.7506 C   0  0  0  0  0  0  0  0  0  0  0  0
    5.6634   -0.4794    0.6904 C   0  0  0  0  0  0  0  0  0  0  0  0
    4.9360    0.8287    0.3589 C   0  0  0  0  0  0  0  0  0  0  0  0
    5.8235    1.2962   -0.7757 C   0  0  0  0  0  0  0  0  0  0  0  0
    6.2148    0.2026   -1.4479 C   0  0  0  0  0  0  0  0  0  0  0  0
    0.6524    0.3573   -0.7952 C   0  0  0  0  0  0  0  0  0  0  0  0
   -0.8556    0.0741   -0.9757 C   0  0  0  0  0  0  0  0  0  0  0  0
    2.4425    0.0874   -0.4859 H   0  0  0  0  0  0  0  0  0  0  0  0
   -2.4425   -0.0873    0.7192 H   0  0  0  0  0  0  0  0  0  0  0  0
   -3.4069   -0.1995    1.2298 H   0  0  0  0  0  0  0  0  0  0  0  0
   -2.6845   -1.4813    0.2674 H   0  0  0  0  0  0  0  0  0  0  0  0
   -3.3764   -0.2415   -1.8292 H   0  0  0  0  0  0  0  0  0  0  0  0
   -5.6935   -0.8496   -1.7621 H   0  0  0  0  0  0  0  0  0  0  0  0
   -4.7881   -2.0588   -0.8674 H   0  0  0  0  0  0  0  0  0  0  0  0
   -6.9925   -1.2425    0.1710 H   0  0  0  0  0  0  0  0  0  0  0  0
   -5.6019   -1.2714    1.2489 H   0  0  0  0  0  0  0  0  0  0  0  0
   -7.0045    0.9296    1.3851 H   0  0  0  0  0  0  0  0  0  0  0  0
   -5.6912    2.6901    0.3796 H   0  0  0  0  0  0  0  0  0  0  0  0
   -4.7173    1.6805   -1.8398 H   0  0  0  0  0  0  0  0  0  0  0  0
   -3.5276    2.0675   -0.6094 H   0  0  0  0  0  0  0  0  0  0  0  0
   -1.4642   -0.1731    2.3060 H   0  0  0  0  0  0  0  0  0  0  0  0
   -0.4146    1.1060    1.7545 H   0  0  0  0  0  0  0  0  0  0  0  0
    0.8246   -1.0131    2.2486 H   0  0  0  0  0  0  0  0  0  0  0  0
   -0.1054   -1.8471    1.0305 H   0  0  0  0  0  0  0  0  0  0  0  0
    2.2846    1.0216    1.2797 H   0  0  0  0  0  0  0  0  0  0  0  0
    2.9102   -0.6007    1.5367 H   0  0  0  0  0  0  0  0  0  0  0  0
    3.2549    1.0501   -1.0173 H   0  0  0  0  0  0  0  0  0  0  0  0
    3.6219   -1.8775   -0.5705 H   0  0  0  0  0  0  0  0  0  0  0  0
    3.8406   -0.9547   -2.0735 H   0  0  0  0  0  0  0  0  0  0  0  0
    6.1166   -1.9388   -0.9290 H   0  0  0  0  0  0  0  0  0  0  0  0
    5.1272   -1.1192    1.3987 H   0  0  0  0  0  0  0  0  0  0  0  0
    6.6863   -0.3273    1.0589 H   0  0  0  0  0  0  0  0  0  0  0  0
    4.8425    1.5350    1.1849 H   0  0  0  0  0  0  0  0  0  0  0  0
    6.0411    2.3229   -1.0279 H   0  0  0  0  0  0  0  0  0  0  0  0
    6.8132    0.1739   -2.3456 H   0  0  0  0  0  0  0  0  0  0  0  0
    1.1518    0.2017   -1.7584 H   0  0  0  0  0  0  0  0  0  0  0  0
    0.7729    1.4172   -0.5322 H   0  0  0  0  0  0  0  0  0  0  0  0
   -0.9721   -0.9740   -1.2838 H   0  0  0  0  0  0  0  0  0  0  0  0
   -1.2295    0.6979   -1.7956 H   0  0  0  0  0  0  0  0  0  0  0  0
  1  2  1  0
  2  3  2  0
  2  4  1  0
  4  5  2  0
  4  6  1  0
  7  8  1  0
  8  9  1  0
  9 10  1  0
 10 11  1  0
 11 12  2  0
 12 13  1  0
  7 14  1  0
 14 15  1  0
 15 16  1  0
 16 17  1  0
 17 18  1  0
 18 19  1  0
 19 20  1  0
 20 21  1  0
 21 22  1  0
 22 23  1  0
 23 24  1  0
 24 25  2  0
 17 26  1  0
 26 27  1  0
 13  8  1  0
 27 14  1  0
 23 19  1  0
 25 21  1  0
  1 28  1  0
  6 29  1  0
  7 30  1  0
  7 31  1  0
  8 32  1  0
  9 33  1  0
  9 34  1  0
 10 35  1  0
 10 36  1  0
 11 37  1  0
 12 38  1  0
 13 39  1  0
 13 40  1  0
 15 41  1  0
 15 42  1  0
 16 43  1  0
 16 44  1  0
 18 45  1  0
 18 46  1  0
 19 47  1  0
 20 48  1  0
 20 49  1  0
 21 50  1  0
 22 51  1  0
 22 52  1  0
 23 53  1  0
 24 54  1  0
 25 55  1  0
 26 56  1  0
 26 57  1  0
 27 58  1  0
 27 59  1  0
M  END
>  <Unnamed: 0>  (131) 
830

>  <ID>  (131) 
TRAIN_0830

>  <Canonical_Smiles>  (131) 
OC(=O)C(=O)O.C(C1CCC=CC1)N2CCN(CC3CC4CC3C=C4)CC2

>  <Inhibition>  (131) 
17.830856

>  <TDC_conf_true_inhibitor>  (131) 
0

>  <TDC_conf_non_inhibitor>  (131) 
1

>  <split>  (131) 
1

$$$$
131
     RDKit          3D

 68 71  0  0  0  0  0  0  0  0999 V2000
    1.1571    2.6190   -3.2628 C   0  0  0  0  0  0  0  0  0  0  0  0
    1.6512    1.7948   -2.1445 N   0  0  0  0  0  0  0  0  0  0  0  0
    0.7118    0.7471   -1.6271 C   0  0  0  0  0  0  0  0  0  0  0  0
    1.4569   -0.0960   -0.5799 C   0  0  0  0  0  0  0  0  0  0  0  0
    2.9767    0.0023   -0.7099 C   0  0  0  0  0  0  0  0  0  0  0  0
    3.4766    1.3602   -0.4839 N   0  0  0  0  0  0  0  0  0  0  0  0
    2.4938    2.6193   -0.9529 S   0  0  0  0  0  6  0  0  0  0  0  0
    3.3422    3.6214   -1.5459 O   0  0  0  0  0  0  0  0  0  0  0  0
    1.6305    2.9001    0.1667 O   0  0  0  0  0  0  0  0  0  0  0  0
    3.7153   -0.9026    0.2339 C   0  0  0  0  0  0  0  0  0  0  0  0
    3.3382   -1.3568    1.4851 C   0  0  0  0  0  0  0  0  0  0  0  0
    4.3540   -2.1467    1.9332 N   0  0  0  0  0  0  0  0  0  0  0  0
    4.4172   -2.8536    3.1889 C   0  0  0  0  0  0  0  0  0  0  0  0
    5.3771   -2.2401    1.0715 N   0  0  0  0  0  0  0  0  0  0  0  0
    5.0072   -1.4746    0.0377 C   0  0  0  0  0  0  0  0  0  0  0  0
    5.9225   -1.2899   -1.1185 C   0  0  0  0  0  0  0  0  0  0  0  0
   -0.6109    1.3701   -1.0960 C   0  0  0  0  0  0  0  0  0  0  0  0
   -0.9843    2.4803   -1.4909 O   0  0  0  0  0  0  0  0  0  0  0  0
   -1.3895    0.6625   -0.1625 N   0  0  0  0  0  0  0  0  0  0  0  0
   -2.0269   -0.6450   -0.4801 C   0  0  0  0  0  0  0  0  0  0  0  0
   -2.1461   -0.9895   -1.9737 C   0  0  0  0  0  0  0  0  0  0  0  0
   -2.9947   -2.2467   -2.1776 C   0  0  0  0  0  0  0  0  0  0  0  0
   -2.4516   -3.4281   -1.3768 C   0  0  0  0  0  0  0  0  0  0  0  0
   -2.2916   -3.0895    0.1041 C   0  0  0  0  0  0  0  0  0  0  0  0
   -1.4481   -1.8295    0.3094 C   0  0  0  0  0  0  0  0  0  0  0  0
   -2.1323    1.5465    0.7766 C   0  0  0  0  0  0  0  0  0  0  0  0
   -2.3724    0.8986    2.1480 C   0  0  0  0  0  0  0  0  0  0  0  0
   -2.9747    1.8844    3.1520 C   0  0  0  0  0  0  0  0  0  0  0  0
   -3.9393    2.8905    2.5232 C   0  0  0  0  0  0  0  0  0  0  0  0
   -4.5279    2.3783    1.2167 C   0  0  0  0  0  0  0  0  0  0  0  0
   -3.4361    2.1253    0.1750 C   0  0  0  0  0  0  0  0  0  0  0  0
    0.3350    2.1287   -3.7911 H   0  0  0  0  0  0  0  0  0  0  0  0
    0.8106    3.5985   -2.9206 H   0  0  0  0  0  0  0  0  0  0  0  0
    1.9683    2.7633   -3.9827 H   0  0  0  0  0  0  0  0  0  0  0  0
    0.4696    0.1098   -2.4829 H   0  0  0  0  0  0  0  0  0  0  0  0
    1.1809   -1.1436   -0.7276 H   0  0  0  0  0  0  0  0  0  0  0  0
    1.1427    0.1745    0.4364 H   0  0  0  0  0  0  0  0  0  0  0  0
    3.2523   -0.2901   -1.7327 H   0  0  0  0  0  0  0  0  0  0  0  0
    3.8495    1.5361    0.4487 H   0  0  0  0  0  0  0  0  0  0  0  0
    2.4505   -1.1870    2.0791 H   0  0  0  0  0  0  0  0  0  0  0  0
    5.2003   -2.3976    3.8009 H   0  0  0  0  0  0  0  0  0  0  0  0
    4.6485   -3.9024    2.9848 H   0  0  0  0  0  0  0  0  0  0  0  0
    3.4523   -2.7794    3.6973 H   0  0  0  0  0  0  0  0  0  0  0  0
    6.2609   -0.2497   -1.1691 H   0  0  0  0  0  0  0  0  0  0  0  0
    6.8070   -1.9307   -1.0387 H   0  0  0  0  0  0  0  0  0  0  0  0
    5.4140   -1.5353   -2.0570 H   0  0  0  0  0  0  0  0  0  0  0  0
   -3.0658   -0.5469   -0.1380 H   0  0  0  0  0  0  0  0  0  0  0  0
   -2.5942   -0.1545   -2.5238 H   0  0  0  0  0  0  0  0  0  0  0  0
   -1.1610   -1.1763   -2.4081 H   0  0  0  0  0  0  0  0  0  0  0  0
   -4.0293   -2.0437   -1.8751 H   0  0  0  0  0  0  0  0  0  0  0  0
   -3.0198   -2.5042   -3.2424 H   0  0  0  0  0  0  0  0  0  0  0  0
   -1.4792   -3.7274   -1.7877 H   0  0  0  0  0  0  0  0  0  0  0  0
   -3.1221   -4.2884   -1.4860 H   0  0  0  0  0  0  0  0  0  0  0  0
   -3.2811   -2.9446    0.5557 H   0  0  0  0  0  0  0  0  0  0  0  0
   -1.8240   -3.9327    0.6252 H   0  0  0  0  0  0  0  0  0  0  0  0
   -1.3944   -1.6027    1.3789 H   0  0  0  0  0  0  0  0  0  0  0  0
   -0.4300   -2.0515   -0.0080 H   0  0  0  0  0  0  0  0  0  0  0  0
   -1.4675    2.4029    0.9686 H   0  0  0  0  0  0  0  0  0  0  0  0
   -3.0535    0.0442    2.0517 H   0  0  0  0  0  0  0  0  0  0  0  0
   -1.4338    0.5018    2.5537 H   0  0  0  0  0  0  0  0  0  0  0  0
   -3.4929    1.3149    3.9337 H   0  0  0  0  0  0  0  0  0  0  0  0
   -2.1722    2.4348    3.6590 H   0  0  0  0  0  0  0  0  0  0  0  0
   -4.7393    3.1274    3.2341 H   0  0  0  0  0  0  0  0  0  0  0  0
   -3.4067    3.8311    2.3323 H   0  0  0  0  0  0  0  0  0  0  0  0
   -5.0816    1.4495    1.4034 H   0  0  0  0  0  0  0  0  0  0  0  0
   -5.2509    3.1010    0.8210 H   0  0  0  0  0  0  0  0  0  0  0  0
   -3.1993    3.0756   -0.3195 H   0  0  0  0  0  0  0  0  0  0  0  0
   -3.8456    1.4827   -0.6124 H   0  0  0  0  0  0  0  0  0  0  0  0
  1  2  1  0
  2  3  1  0
  3  4  1  0
  4  5  1  0
  5  6  1  0
  6  7  1  0
  7  8  2  0
  7  9  2  0
  5 10  1  0
 10 11  2  0
 11 12  1  0
 12 13  1  0
 12 14  1  0
 14 15  2  0
 15 16  1  0
  3 17  1  0
 17 18  2  0
 17 19  1  0
 19 20  1  0
 20 21  1  0
 21 22  1  0
 22 23  1  0
 23 24  1  0
 24 25  1  0
 19 26  1  0
 26 27  1  0
 27 28  1  0
 28 29  1  0
 29 30  1  0
 30 31  1  0
  7  2  1  0
 15 10  1  0
 25 20  1  0
 31 26  1  0
  1 32  1  0
  1 33  1  0
  1 34  1  0
  3 35  1  0
  4 36  1  0
  4 37  1  0
  5 38  1  0
  6 39  1  0
 11 40  1  0
 13 41  1  0
 13 42  1  0
 13 43  1  0
 16 44  1  0
 16 45  1  0
 16 46  1  0
 20 47  1  0
 21 48  1  0
 21 49  1  0
 22 50  1  0
 22 51  1  0
 23 52  1  0
 23 53  1  0
 24 54  1  0
 24 55  1  0
 25 56  1  0
 25 57  1  0
 26 58  1  0
 27 59  1  0
 27 60  1  0
 28 61  1  0
 28 62  1  0
 29 63  1  0
 29 64  1  0
 30 65  1  0
 30 66  1  0
 31 67  1  0
 31 68  1  0
M  END
>  <Unnamed: 0>  (132) 
831

>  <ID>  (132) 
TRAIN_0831

>  <Canonical_Smiles>  (132) 
CN1C(CC(NS1(=O)=O)c2cn(C)nc2C)C(=O)N(C3CCCCC3)C4CCCCC4

>  <Inhibition>  (132) 
79.163879

>  <TDC_conf_true_inhibitor>  (132) 
1

>  <TDC_conf_non_inhibitor>  (132) 
0

>  <split>  (132) 
1

$$$$
132
     RDKit          3D

 56 58  0  0  0  0  0  0  0  0999 V2000
    2.2684   -0.3662   -3.6104 C   0  0  0  0  0  0  0  0  0  0  0  0
    0.8877   -0.3435   -2.9471 C   0  0  0  0  0  0  0  0  0  0  0  0
    0.9609   -0.5149   -1.4846 N   0  0  0  0  0  0  0  0  0  0  0  0
    1.2952   -1.9011   -1.0983 C   0  0  0  0  0  0  0  0  0  0  0  0
    1.9598   -1.9923    0.2668 C   0  0  0  0  0  0  0  0  0  0  0  0
    2.9659   -1.0843    0.6302 C   0  0  0  0  0  0  0  0  0  0  0  0
    3.5838   -1.1661    1.8781 C   0  0  0  0  0  0  0  0  0  0  0  0
    3.2141   -2.1651    2.7767 C   0  0  0  0  0  0  0  0  0  0  0  0
    2.2409   -3.0937    2.4187 C   0  0  0  0  0  0  0  0  0  0  0  0
    1.6261   -3.0158    1.1671 C   0  0  0  0  0  0  0  0  0  0  0  0
   -0.2042    0.0303   -0.7225 C   0  0  0  0  0  0  0  0  0  0  0  0
    0.0398    1.5095   -0.3756 C   0  0  0  0  0  0  0  0  0  0  0  0
   -0.2436    2.5583   -1.2718 C   0  0  0  0  0  0  0  0  0  0  0  0
    0.0279    3.8897   -0.9322 C   0  0  0  0  0  0  0  0  0  0  0  0
    0.5827    4.2076    0.3184 C   0  0  0  0  0  0  0  0  0  0  0  0
    0.8697    3.1649    1.2187 C   0  0  0  0  0  0  0  0  0  0  0  0
    0.6120    1.8368    0.8715 C   0  0  0  0  0  0  0  0  0  0  0  0
    0.8815    5.6359    0.7035 C   0  0  0  0  0  0  0  0  0  0  0  0
    0.2426    6.0100    1.8489 F   0  0  0  0  0  0  0  0  0  0  0  0
    2.2073    5.8446    0.9350 F   0  0  0  0  0  0  0  0  0  0  0  0
    0.5176    6.5480   -0.2391 F   0  0  0  0  0  0  0  0  0  0  0  0
   -1.5823   -0.2229   -1.3012 C   0  0  0  0  0  0  0  0  0  0  0  0
   -1.9537    0.0287   -2.5506 N   0  0  0  0  0  0  0  0  0  0  0  0
   -3.2628   -0.3199   -2.6638 N   0  0  0  0  0  0  0  0  0  0  0  0
   -3.7261   -0.7717   -1.5152 N   0  0  0  0  0  0  0  0  0  0  0  0
   -2.7008   -0.6966   -0.6320 N   0  0  0  0  0  0  0  0  0  0  0  0
   -2.9220   -1.1453    0.7562 C   0  0  0  0  0  0  0  0  0  0  0  0
   -2.5128   -0.0677    1.7773 C   0  0  0  0  0  0  0  0  0  0  0  0
   -4.4223   -1.4507    1.0290 C   0  0  0  0  0  0  0  0  0  0  0  0
   -2.1612   -2.4628    1.0091 C   0  0  0  0  0  0  0  0  0  0  0  0
    2.9609    0.3156   -3.0987 H   0  0  0  0  0  0  0  0  0  0  0  0
    2.1922   -0.0405   -4.6568 H   0  0  0  0  0  0  0  0  0  0  0  0
    2.7071   -1.3677   -3.6148 H   0  0  0  0  0  0  0  0  0  0  0  0
    0.4627    0.6326   -3.2029 H   0  0  0  0  0  0  0  0  0  0  0  0
    0.2461   -1.1140   -3.4013 H   0  0  0  0  0  0  0  0  0  0  0  0
    2.0174   -2.3492   -1.7916 H   0  0  0  0  0  0  0  0  0  0  0  0
    0.3985   -2.5333   -1.1481 H   0  0  0  0  0  0  0  0  0  0  0  0
    3.2658   -0.3022   -0.0662 H   0  0  0  0  0  0  0  0  0  0  0  0
    4.3568   -0.4517    2.1437 H   0  0  0  0  0  0  0  0  0  0  0  0
    3.6938   -2.2291    3.7499 H   0  0  0  0  0  0  0  0  0  0  0  0
    1.9681   -3.8838    3.1144 H   0  0  0  0  0  0  0  0  0  0  0  0
    0.8859   -3.7654    0.9015 H   0  0  0  0  0  0  0  0  0  0  0  0
   -0.1938   -0.4708    0.2479 H   0  0  0  0  0  0  0  0  0  0  0  0
   -0.6713    2.3546   -2.2546 H   0  0  0  0  0  0  0  0  0  0  0  0
   -0.1897    4.6778   -1.6602 H   0  0  0  0  0  0  0  0  0  0  0  0
    1.3047    3.3837    2.1972 H   0  0  0  0  0  0  0  0  0  0  0  0
    0.8667    1.0516    1.5886 H   0  0  0  0  0  0  0  0  0  0  0  0
   -1.4304    0.0149    1.8808 H   0  0  0  0  0  0  0  0  0  0  0  0
   -2.8982    0.9216    1.4954 H   0  0  0  0  0  0  0  0  0  0  0  0
   -2.8919   -0.2992    2.7813 H   0  0  0  0  0  0  0  0  0  0  0  0
   -4.5757   -1.7699    2.0684 H   0  0  0  0  0  0  0  0  0  0  0  0
   -5.0610   -0.5686    0.8588 H   0  0  0  0  0  0  0  0  0  0  0  0
   -4.8008   -2.2632    0.3896 H   0  0  0  0  0  0  0  0  0  0  0  0
   -2.2448   -2.7803    2.0603 H   0  0  0  0  0  0  0  0  0  0  0  0
   -1.1021   -2.3682    0.7716 H   0  0  0  0  0  0  0  0  0  0  0  0
   -2.5595   -3.2795    0.3851 H   0  0  0  0  0  0  0  0  0  0  0  0
  1  2  1  0
  2  3  1  0
  3  4  1  0
  4  5  1  0
  5  6  2  0
  6  7  1  0
  7  8  2  0
  8  9  1  0
  9 10  2  0
  3 11  1  0
 11 12  1  0
 12 13  2  0
 13 14  1  0
 14 15  2  0
 15 16  1  0
 16 17  2  0
 15 18  1  0
 18 19  1  0
 18 20  1  0
 18 21  1  0
 11 22  1  0
 22 23  2  0
 23 24  1  0
 24 25  2  0
 25 26  1  0
 26 27  1  0
 27 28  1  0
 27 29  1  0
 27 30  1  0
 10  5  1  0
 17 12  1  0
 26 22  1  0
  1 31  1  0
  1 32  1  0
  1 33  1  0
  2 34  1  0
  2 35  1  0
  4 36  1  0
  4 37  1  0
  6 38  1  0
  7 39  1  0
  8 40  1  0
  9 41  1  0
 10 42  1  0
 11 43  1  0
 13 44  1  0
 14 45  1  0
 16 46  1  0
 17 47  1  0
 28 48  1  0
 28 49  1  0
 28 50  1  0
 29 51  1  0
 29 52  1  0
 29 53  1  0
 30 54  1  0
 30 55  1  0
 30 56  1  0
M  END
>  <Unnamed: 0>  (133) 
832

>  <ID>  (133) 
TRAIN_0832

>  <Canonical_Smiles>  (133) 
CCN(Cc1ccccc1)C(c2ccc(cc2)C(F)(F)F)c3nnnn3C(C)(C)C

>  <Inhibition>  (133) 
32.237512

>  <TDC_conf_true_inhibitor>  (133) 
1

>  <TDC_conf_non_inhibitor>  (133) 
0

>  <split>  (133) 
1

$$$$
133
     RDKit          3D

 57 61  0  0  0  0  0  0  0  0999 V2000
   -7.3157   -1.2818   -2.1902 C   0  0  0  0  0  0  0  0  0  0  0  0
   -6.7866   -1.0430   -0.8945 O   0  0  0  0  0  0  0  0  0  0  0  0
   -5.4414   -1.2428   -0.7072 C   0  0  0  0  0  0  0  0  0  0  0  0
   -4.5554   -1.6543   -1.7055 C   0  0  0  0  0  0  0  0  0  0  0  0
   -3.1896   -1.8375   -1.4282 C   0  0  0  0  0  0  0  0  0  0  0  0
   -2.2693   -2.2472   -2.5531 C   0  0  0  0  0  0  0  0  0  0  0  0
   -0.8725   -2.6492   -2.0683 C   0  0  0  0  0  0  0  0  0  0  0  0
   -0.3280   -1.7617   -1.0287 N   0  0  0  0  0  0  0  0  0  0  0  0
   -0.1091   -0.3881   -1.5503 C   0  0  0  0  0  0  0  0  0  0  0  0
    1.0513    0.3716   -0.9120 C   0  0  0  0  0  0  0  0  0  0  0  0
    2.2757   -0.1948   -0.9766 N   0  0  0  0  0  0  0  0  0  0  0  0
    3.2945    0.4599   -0.4140 C   0  0  0  0  0  0  0  0  0  0  0  0
    4.4904   -0.1887   -0.5138 O   0  0  0  0  0  0  0  0  0  0  0  0
    3.1341    1.6915    0.2123 C   0  0  0  0  0  0  0  0  0  0  0  0
    4.0133    2.6159    0.8845 C   0  0  0  0  0  0  0  0  0  0  0  0
    3.3325    3.7347    1.3308 C   0  0  0  0  0  0  0  0  0  0  0  0
    1.6681    3.6829    0.9473 S   0  0  0  0  0  0  0  0  0  0  0  0
    1.8339    2.1688    0.1870 C   0  0  0  0  0  0  0  0  0  0  0  0
    0.7661    1.5620   -0.3579 N   0  0  0  0  0  0  0  0  0  0  0  0
    5.4431    2.4807    1.1335 C   0  0  0  0  0  0  0  0  0  0  0  0
    6.3428    3.4321    0.6348 C   0  0  0  0  0  0  0  0  0  0  0  0
    7.7108    3.3071    0.8864 C   0  0  0  0  0  0  0  0  0  0  0  0
    8.1871    2.2330    1.6366 C   0  0  0  0  0  0  0  0  0  0  0  0
    7.2978    1.2819    2.1348 C   0  0  0  0  0  0  0  0  0  0  0  0
    5.9292    1.4047    1.8850 C   0  0  0  0  0  0  0  0  0  0  0  0
   -1.2038   -1.8362    0.1695 C   0  0  0  0  0  0  0  0  0  0  0  0
   -0.6416   -1.0299    1.3502 C   0  0  0  0  0  0  0  0  0  0  0  0
   -2.6856   -1.5864   -0.1367 C   0  0  0  0  0  0  0  0  0  0  0  0
   -3.5912   -1.1883    0.8641 C   0  0  0  0  0  0  0  0  0  0  0  0
   -4.9540   -1.0048    0.5895 C   0  0  0  0  0  0  0  0  0  0  0  0
   -5.8857   -0.6135    1.5204 O   0  0  0  0  0  0  0  0  0  0  0  0
   -5.4133   -0.2014    2.7945 C   0  0  0  0  0  0  0  0  0  0  0  0
   -6.8753   -0.6033   -2.9281 H   0  0  0  0  0  0  0  0  0  0  0  0
   -8.3907   -1.0804   -2.1549 H   0  0  0  0  0  0  0  0  0  0  0  0
   -7.1838   -2.3281   -2.4847 H   0  0  0  0  0  0  0  0  0  0  0  0
   -4.9005   -1.8398   -2.7177 H   0  0  0  0  0  0  0  0  0  0  0  0
   -2.1878   -1.4041   -3.2505 H   0  0  0  0  0  0  0  0  0  0  0  0
   -2.7084   -3.0900   -3.1004 H   0  0  0  0  0  0  0  0  0  0  0  0
   -0.9088   -3.6731   -1.6715 H   0  0  0  0  0  0  0  0  0  0  0  0
   -0.1856   -2.7019   -2.9224 H   0  0  0  0  0  0  0  0  0  0  0  0
   -1.0213    0.2186   -1.4946 H   0  0  0  0  0  0  0  0  0  0  0  0
    0.1546   -0.4388   -2.6156 H   0  0  0  0  0  0  0  0  0  0  0  0
    4.2141   -0.9892   -0.9945 H   0  0  0  0  0  0  0  0  0  0  0  0
    3.7293    4.5829    1.8734 H   0  0  0  0  0  0  0  0  0  0  0  0
    5.9882    4.2707    0.0402 H   0  0  0  0  0  0  0  0  0  0  0  0
    8.4048    4.0456    0.4935 H   0  0  0  0  0  0  0  0  0  0  0  0
    9.2522    2.1343    1.8297 H   0  0  0  0  0  0  0  0  0  0  0  0
    7.6687    0.4414    2.7156 H   0  0  0  0  0  0  0  0  0  0  0  0
    5.2487    0.6531    2.2781 H   0  0  0  0  0  0  0  0  0  0  0  0
   -1.1608   -2.8831    0.5067 H   0  0  0  0  0  0  0  0  0  0  0  0
   -0.8422    0.0413    1.2522 H   0  0  0  0  0  0  0  0  0  0  0  0
    0.4382   -1.1829    1.4562 H   0  0  0  0  0  0  0  0  0  0  0  0
   -1.0860   -1.3608    2.2958 H   0  0  0  0  0  0  0  0  0  0  0  0
   -3.2236   -1.0317    1.8712 H   0  0  0  0  0  0  0  0  0  0  0  0
   -4.9791   -1.0435    3.3429 H   0  0  0  0  0  0  0  0  0  0  0  0
   -4.7007    0.6256    2.7075 H   0  0  0  0  0  0  0  0  0  0  0  0
   -6.2720    0.1600    3.3686 H   0  0  0  0  0  0  0  0  0  0  0  0
  1  2  1  0
  2  3  1  0
  3  4  2  0
  4  5  1  0
  5  6  1  0
  6  7  1  0
  7  8  1  0
  8  9  1  0
  9 10  1  0
 10 11  2  0
 11 12  1  0
 12 13  1  0
 12 14  2  0
 14 15  1  0
 15 16  2  0
 16 17  1  0
 17 18  1  0
 18 19  2  0
 15 20  1  0
 20 21  2  0
 21 22  1  0
 22 23  2  0
 23 24  1  0
 24 25  2  0
  8 26  1  0
 26 27  1  0
 26 28  1  0
 28 29  1  0
 29 30  2  0
 30 31  1  0
 31 32  1  0
 30  3  1  0
 28  5  2  0
 19 10  1  0
 18 14  1  0
 25 20  1  0
  1 33  1  0
  1 34  1  0
  1 35  1  0
  4 36  1  0
  6 37  1  0
  6 38  1  0
  7 39  1  0
  7 40  1  0
  9 41  1  0
  9 42  1  0
 13 43  1  0
 16 44  1  0
 21 45  1  0
 22 46  1  0
 23 47  1  0
 24 48  1  0
 25 49  1  0
 26 50  1  0
 27 51  1  0
 27 52  1  0
 27 53  1  0
 29 54  1  0
 32 55  1  0
 32 56  1  0
 32 57  1  0
M  END
>  <Unnamed: 0>  (134) 
833

>  <ID>  (134) 
TRAIN_0833

>  <Canonical_Smiles>  (134) 
COc1cc2CCN(Cc3nc(O)c4c(csc4n3)c5ccccc5)C(C)c2cc1OC

>  <Inhibition>  (134) 
40.444535

>  <TDC_conf_true_inhibitor>  (134) 
0

>  <TDC_conf_non_inhibitor>  (134) 
1

>  <split>  (134) 
1

$$$$
134
     RDKit          3D

 37 39  0  0  0  0  0  0  0  0999 V2000
   -0.0083    0.7417    1.5548 C   0  0  0  0  0  0  0  0  0  0  0  0
    0.2196    0.3181    0.1742 N   0  0  0  0  0  0  0  0  0  0  0  0
   -0.8453   -0.4028   -0.5322 C   0  0  0  0  0  0  0  0  0  0  0  0
   -1.1014   -1.8638   -0.0440 C   0  0  0  0  0  0  0  0  0  0  0  0
   -0.9728   -1.9938    1.3822 O   0  0  0  0  0  0  0  0  0  0  0  0
   -2.5570   -2.1801   -0.4433 C   0  0  0  0  0  0  0  0  0  0  0  0
   -3.1994   -0.8199   -0.4119 C   0  0  0  0  0  0  0  0  0  0  0  0
   -4.5498   -0.5026   -0.4046 C   0  0  0  0  0  0  0  0  0  0  0  0
   -5.7550   -1.7275   -0.3653 Cl  0  0  0  0  0  0  0  0  0  0  0  0
   -4.9321    0.8391   -0.4430 C   0  0  0  0  0  0  0  0  0  0  0  0
   -3.9576    1.8432   -0.5111 C   0  0  0  0  0  0  0  0  0  0  0  0
   -4.4453    3.4932   -0.5772 Cl  0  0  0  0  0  0  0  0  0  0  0  0
   -2.5982    1.5295   -0.5364 C   0  0  0  0  0  0  0  0  0  0  0  0
   -2.2292    0.1927   -0.4647 C   0  0  0  0  0  0  0  0  0  0  0  0
    1.5209    0.0859   -0.2912 C   0  0  0  0  0  0  0  0  0  0  0  0
    1.7287   -0.5933   -1.3013 O   0  0  0  0  0  0  0  0  0  0  0  0
    2.6596    0.7325    0.5084 C   0  0  0  0  0  0  0  0  0  0  0  0
    4.0249    0.5670   -0.0859 C   0  0  0  0  0  0  0  0  0  0  0  0
    5.2502    1.0452    0.3322 C   0  0  0  0  0  0  0  0  0  0  0  0
    6.1712    0.5676   -0.6169 C   0  0  0  0  0  0  0  0  0  0  0  0
    5.5865   -0.1599   -1.5691 N   0  0  0  0  0  0  0  0  0  0  0  0
    4.2867   -0.1458   -1.2288 N   0  0  0  0  0  0  0  0  0  0  0  0
    0.3964   -0.0113    2.2372 H   0  0  0  0  0  0  0  0  0  0  0  0
    0.5116    1.6866    1.7349 H   0  0  0  0  0  0  0  0  0  0  0  0
   -1.0678    0.8944    1.7669 H   0  0  0  0  0  0  0  0  0  0  0  0
   -0.5977   -0.4416   -1.6024 H   0  0  0  0  0  0  0  0  0  0  0  0
   -0.3882   -2.5645   -0.4905 H   0  0  0  0  0  0  0  0  0  0  0  0
   -1.1151   -2.9315    1.6004 H   0  0  0  0  0  0  0  0  0  0  0  0
   -2.6048   -2.5751   -1.4636 H   0  0  0  0  0  0  0  0  0  0  0  0
   -3.0327   -2.8707    0.2589 H   0  0  0  0  0  0  0  0  0  0  0  0
   -5.9857    1.1059   -0.4336 H   0  0  0  0  0  0  0  0  0  0  0  0
   -1.8458    2.3092   -0.6104 H   0  0  0  0  0  0  0  0  0  0  0  0
    2.6698    0.2943    1.5125 H   0  0  0  0  0  0  0  0  0  0  0  0
    2.4545    1.8062    0.5897 H   0  0  0  0  0  0  0  0  0  0  0  0
    5.4531    1.6539    1.2018 H   0  0  0  0  0  0  0  0  0  0  0  0
    7.2423    0.7186   -0.6543 H   0  0  0  0  0  0  0  0  0  0  0  0
    3.6132   -0.6406   -1.8128 H   0  0  0  0  0  0  0  0  0  0  0  0
  1  2  1  0
  2  3  1  0
  3  4  1  0
  4  5  1  0
  4  6  1  0
  6  7  1  0
  7  8  2  0
  8  9  1  0
  8 10  1  0
 10 11  2  0
 11 12  1  0
 11 13  1  0
 13 14  2  0
  2 15  1  0
 15 16  2  0
 15 17  1  0
 17 18  1  0
 18 19  2  0
 19 20  1  0
 20 21  2  0
 21 22  1  0
 14  3  1  0
 14  7  1  0
 22 18  1  0
  1 23  1  0
  1 24  1  0
  1 25  1  0
  3 26  1  0
  4 27  1  0
  5 28  1  0
  6 29  1  0
  6 30  1  0
 10 31  1  0
 13 32  1  0
 17 33  1  0
 17 34  1  0
 19 35  1  0
 20 36  1  0
 22 37  1  0
M  END
>  <Unnamed: 0>  (135) 
837

>  <ID>  (135) 
TRAIN_0837

>  <Canonical_Smiles>  (135) 
CN(C1C(O)Cc2c(Cl)cc(Cl)cc12)C(=O)Cc3ccn[nH]3

>  <Inhibition>  (135) 
42.0802

>  <TDC_conf_true_inhibitor>  (135) 
1

>  <TDC_conf_non_inhibitor>  (135) 
0

>  <split>  (135) 
1

$$$$
135
     RDKit          3D

 38 40  0  0  0  0  0  0  0  0999 V2000
   -5.4282    2.9689    2.8744 Cl  0  0  0  0  0  0  0  0  0  0  0  0
   -4.4827    1.8126    2.0015 C   0  0  0  0  0  0  0  0  0  0  0  0
   -3.1781    1.5648    2.4642 C   0  0  0  0  0  0  0  0  0  0  0  0
   -2.3545    0.6407    1.8172 C   0  0  0  0  0  0  0  0  0  0  0  0
   -2.8432   -0.0142    0.6962 C   0  0  0  0  0  0  0  0  0  0  0  0
   -2.1654   -1.0754   -0.1334 C   0  0  0  0  0  0  0  0  0  0  0  0
   -3.0492   -1.0650   -1.3932 C   0  0  0  0  0  0  0  0  0  0  0  0
   -4.4552   -0.6591   -0.9371 C   0  0  0  0  0  0  0  0  0  0  0  0
   -4.1472    0.2255    0.2345 C   0  0  0  0  0  0  0  0  0  0  0  0
   -4.9815    1.1317    0.8814 C   0  0  0  0  0  0  0  0  0  0  0  0
   -6.5863    1.3766    0.2938 Cl  0  0  0  0  0  0  0  0  0  0  0  0
   -0.7926   -0.7573   -0.4566 N   0  0  0  0  0  0  0  0  0  0  0  0
    0.2330   -1.2052    0.3334 C   0  0  0  0  0  0  0  0  0  0  0  0
    0.0977   -1.9516    1.2918 O   0  0  0  0  0  0  0  0  0  0  0  0
    1.4332   -0.6959   -0.0849 N   0  0  0  0  0  0  0  0  0  0  0  0
    2.6508   -1.1488    0.5491 C   0  0  0  0  0  0  0  0  0  0  0  0
    3.7977   -0.3452    0.0051 C   0  0  0  0  0  0  0  0  0  0  0  0
    4.6053    0.3888    0.7890 C   0  0  0  0  0  0  0  0  0  0  0  0
    5.6949    1.1059    0.3590 O   0  0  0  0  0  0  0  0  0  0  0  0
    6.0439    0.7763   -0.9929 C   0  0  0  0  0  0  0  0  0  0  0  0
    4.7995    0.6468   -1.8594 C   0  0  0  0  0  0  0  0  0  0  0  0
    3.9500   -0.4052   -1.3762 O   0  0  0  0  0  0  0  0  0  0  0  0
   -2.8029    2.0853    3.3428 H   0  0  0  0  0  0  0  0  0  0  0  0
   -1.3573    0.4332    2.1976 H   0  0  0  0  0  0  0  0  0  0  0  0
   -2.2351   -2.0415    0.3804 H   0  0  0  0  0  0  0  0  0  0  0  0
   -2.6802   -0.3204   -2.1137 H   0  0  0  0  0  0  0  0  0  0  0  0
   -3.0435   -2.0303   -1.9105 H   0  0  0  0  0  0  0  0  0  0  0  0
   -5.0315   -1.5304   -0.6090 H   0  0  0  0  0  0  0  0  0  0  0  0
   -4.9869   -0.1368   -1.7373 H   0  0  0  0  0  0  0  0  0  0  0  0
   -0.6275    0.1498   -0.8675 H   0  0  0  0  0  0  0  0  0  0  0  0
    1.5049   -0.5574   -1.0828 H   0  0  0  0  0  0  0  0  0  0  0  0
    2.5477   -1.0458    1.6352 H   0  0  0  0  0  0  0  0  0  0  0  0
    2.7869   -2.2114    0.3192 H   0  0  0  0  0  0  0  0  0  0  0  0
    4.4775    0.4967    1.8590 H   0  0  0  0  0  0  0  0  0  0  0  0
    6.6962    1.5682   -1.3737 H   0  0  0  0  0  0  0  0  0  0  0  0
    6.6134   -0.1611   -0.9795 H   0  0  0  0  0  0  0  0  0  0  0  0
    5.0745    0.4068   -2.8910 H   0  0  0  0  0  0  0  0  0  0  0  0
    4.2218    1.5794   -1.8665 H   0  0  0  0  0  0  0  0  0  0  0  0
  1  2  1  0
  2  3  2  0
  3  4  1  0
  4  5  2  0
  5  6  1  0
  6  7  1  0
  7  8  1  0
  8  9  1  0
  9 10  2  0
 10 11  1  0
  6 12  1  0
 12 13  1  0
 13 14  2  0
 13 15  1  0
 15 16  1  0
 16 17  1  0
 17 18  2  0
 18 19  1  0
 19 20  1  0
 20 21  1  0
 21 22  1  0
 10  2  1  0
  9  5  1  0
 22 17  1  0
  3 23  1  0
  4 24  1  0
  6 25  1  0
  7 26  1  0
  7 27  1  0
  8 28  1  0
  8 29  1  0
 12 30  1  0
 15 31  1  0
 16 32  1  0
 16 33  1  0
 18 34  1  0
 20 35  1  0
 20 36  1  0
 21 37  1  0
 21 38  1  0
M  END
>  <Unnamed: 0>  (136) 
838

>  <ID>  (136) 
TRAIN_0838

>  <Canonical_Smiles>  (136) 
Clc1ccc2C(CCc2c1Cl)NC(=O)NCC3=COCCO3

>  <Inhibition>  (136) 
36.17665

>  <TDC_conf_true_inhibitor>  (136) 
1

>  <TDC_conf_non_inhibitor>  (136) 
0

>  <split>  (136) 
1

$$$$
136
     RDKit          3D

 39 39  0  0  0  0  0  0  0  0999 V2000
    0.0000    0.0000    0.0000 Na  0  0  0  0  0 15  0  0  0  0  0  0
    4.6484   -0.2459   -3.0952 C   0  0  0  0  0  0  0  0  0  0  0  0
    3.5763    0.8326   -3.0380 C   0  0  0  0  0  0  0  0  0  0  0  0
    2.6376    0.5710   -1.9390 N   0  0  0  0  0  0  0  0  0  0  0  0
    2.7484    1.2458   -0.7212 C   0  0  0  0  0  0  0  0  0  0  0  0
    1.8902    1.0856    0.3071 C   0  0  0  0  0  0  0  0  0  0  0  0
    0.7808    0.1225    0.1760 C   0  0  0  0  0  0  0  0  0  0  0  0
   -0.0466   -0.1684    1.2224 C   0  0  0  0  0  0  0  0  0  0  0  0
    0.1296    0.3666    2.6394 C   0  0  0  0  0  0  0  0  0  0  0  0
   -0.3932    2.0809    2.8710 S   0  0  0  0  0  6  0  0  0  0  0  0
    0.7982    2.7109    3.4530 O   0  0  0  0  0  0  0  0  0  0  0  0
   -0.7429    2.6016    1.5489 O   0  0  0  0  0  0  0  0  0  0  0  0
   -1.5286    1.9727    3.7948 O   0  0  0  0  0  1  0  0  0  0  0  0
   -1.0471   -1.2381    1.1238 C   0  0  0  0  0  0  0  0  0  0  0  0
   -2.3850   -1.1317    0.9882 C   0  0  0  0  0  0  0  0  0  0  0  0
   -3.1658   -2.3657    0.8860 C   0  0  0  0  0  0  0  0  0  0  0  0
   -4.5019   -2.3301    0.7680 C   0  0  0  0  0  0  0  0  0  0  0  0
   -5.2294   -1.0316    0.7429 C   0  0  0  0  0  0  0  0  0  0  0  0
   -6.4548   -1.0003    0.6466 O   0  0  0  0  0  0  0  0  0  0  0  0
   -4.4223    0.2083    0.8329 C   0  0  0  0  0  0  0  0  0  0  0  0
   -3.0856    0.1465    0.9331 C   0  0  0  0  0  0  0  0  0  0  0  0
    0.6280   -0.5209   -1.1500 C   0  0  0  0  0  0  0  0  0  0  0  0
    1.5425   -0.2801   -2.1068 C   0  0  0  0  0  0  0  0  0  0  0  0
    4.2034   -1.2458   -3.2016 H   0  0  0  0  0  0  0  0  0  0  0  0
    5.2415   -0.2413   -2.1715 H   0  0  0  0  0  0  0  0  0  0  0  0
    5.3256   -0.0710   -3.9383 H   0  0  0  0  0  0  0  0  0  0  0  0
    3.0358    0.8745   -3.9927 H   0  0  0  0  0  0  0  0  0  0  0  0
    4.0561    1.8110   -2.9128 H   0  0  0  0  0  0  0  0  0  0  0  0
    3.5703    1.9539   -0.6526 H   0  0  0  0  0  0  0  0  0  0  0  0
    2.0105    1.6797    1.2074 H   0  0  0  0  0  0  0  0  0  0  0  0
   -0.4277   -0.2379    3.3738 H   0  0  0  0  0  0  0  0  0  0  0  0
    1.1859    0.2977    2.9436 H   0  0  0  0  0  0  0  0  0  0  0  0
   -0.5863   -2.2311    1.1378 H   0  0  0  0  0  0  0  0  0  0  0  0
   -2.6539   -3.3258    0.9302 H   0  0  0  0  0  0  0  0  0  0  0  0
   -5.1049   -3.2229    0.7052 H   0  0  0  0  0  0  0  0  0  0  0  0
   -4.9545    1.1535    0.8143 H   0  0  0  0  0  0  0  0  0  0  0  0
   -2.5219    1.0725    0.9769 H   0  0  0  0  0  0  0  0  0  0  0  0
   -0.2167   -1.1664   -1.3508 H   0  0  0  0  0  0  0  0  0  0  0  0
    1.4601   -0.7328   -3.0929 H   0  0  0  0  0  0  0  0  0  0  0  0
  2  3  1  0
  3  4  1  0
  4  5  1  0
  5  6  2  0
  6  7  1  0
  7  8  2  3
  8  9  1  0
  9 10  1  0
 10 11  2  0
 10 12  2  0
 10 13  1  0
  8 14  1  0
 14 15  2  3
 15 16  1  0
 16 17  2  0
 17 18  1  0
 18 19  2  0
 18 20  1  0
 20 21  2  0
  7 22  1  0
 22 23  2  0
 23  4  1  0
 21 15  1  0
  2 24  1  0
  2 25  1  0
  2 26  1  0
  3 27  1  0
  3 28  1  0
  5 29  1  0
  6 30  1  0
  9 31  1  0
  9 32  1  0
 14 33  1  0
 16 34  1  0
 17 35  1  0
 20 36  1  0
 21 37  1  0
 22 38  1  0
 23 39  1  0
M  CHG  2   1   1  13  -1
M  END
>  <Unnamed: 0>  (137) 
839

>  <ID>  (137) 
TRAIN_0839

>  <Canonical_Smiles>  (137) 
[Na+].CCN1C=CC(=C(CS(=O)(=O)[O-])C=C2C=CC(=O)C=C2)C=C1

>  <Inhibition>  (137) 
5.417042

>  <TDC_conf_true_inhibitor>  (137) 
0

>  <TDC_conf_non_inhibitor>  (137) 
1

>  <split>  (137) 
1

$$$$
137
     RDKit          3D

 51 52  0  0  0  0  0  0  0  0999 V2000
    0.7595    0.0000    0.0000 Br  0  0  0  0  0  0  0  0  0  0  0  0
   -6.8174    0.0802   -1.3168 C   0  0  0  0  0  0  0  0  0  0  0  0
   -6.0980   -0.4751   -0.0947 C   0  0  0  0  0  0  0  0  0  0  0  0
   -5.9009   -1.9451   -0.1384 C   0  0  0  0  0  0  0  0  0  0  0  0
   -4.8616    0.3271    0.1732 C   0  0  0  0  0  0  0  0  0  0  0  0
   -3.8587    0.3543   -0.9169 C   0  0  0  0  0  0  0  0  0  0  0  0
   -2.6890    1.2274   -0.4239 C   0  0  0  0  0  0  0  0  0  0  0  0
   -1.8599    0.3419    0.4149 C   0  0  0  0  0  0  0  0  0  0  0  0
   -2.0487    0.5941    1.8911 C   0  0  0  0  0  0  0  0  0  0  0  0
   -2.2726   -0.9621    0.0496 O   0  0  0  0  0  0  0  0  0  0  0  0
   -3.1631   -0.9535   -1.0099 C   0  0  0  0  0  0  0  0  0  0  0  0
   -3.3513   -1.8675   -1.8832 O   0  0  0  0  0  0  0  0  0  0  0  0
   -0.3967    0.4414    0.0240 C   0  0  0  0  0  0  0  0  0  0  0  0
    0.1355    1.2248   -0.9327 C   0  0  0  0  0  0  0  0  0  0  0  0
    1.9325    0.8620   -0.8715 S   0  0  0  0  0  0  0  0  0  0  0  0
    1.6258   -0.3747    0.5394 C   0  0  0  0  0  0  0  0  0  0  0  0
    2.8500   -1.0659    1.0680 N   0  0  0  0  0  0  0  0  0  0  0  0
    4.0770   -0.7802    0.5285 N   0  0  0  0  0  0  0  0  0  0  0  0
    5.2004   -0.3202    1.2678 C   0  0  0  0  0  0  0  0  0  0  0  0
    5.0691   -0.1629    2.5154 O   0  0  0  0  0  0  0  0  0  0  0  0
    6.4333   -0.0548    0.5570 C   0  0  0  0  0  0  0  0  0  0  0  0
    7.6276   -0.0883    1.2428 C   0  0  0  0  0  0  0  0  0  0  0  0
    8.8249    0.1683    0.6020 C   0  0  0  0  0  0  0  0  0  0  0  0
    8.8240    0.4621   -0.7475 C   0  0  0  0  0  0  0  0  0  0  0  0
    7.6463    0.5017   -1.4531 C   0  0  0  0  0  0  0  0  0  0  0  0
    6.4582    0.2400   -0.7807 C   0  0  0  0  0  0  0  0  0  0  0  0
    0.5152   -0.2915    0.6554 N   0  0  0  0  0  0  0  0  0  0  0  0
   -0.7595    0.0000    0.0000 H   0  0  0  0  0  0  0  0  0  0  0  0
   -6.8004    1.1907   -1.1803 H   0  0  0  0  0  0  0  0  0  0  0  0
   -6.3886   -0.2401   -2.2639 H   0  0  0  0  0  0  0  0  0  0  0  0
   -7.9045   -0.1906   -1.2889 H   0  0  0  0  0  0  0  0  0  0  0  0
   -6.7924   -0.2444    0.7658 H   0  0  0  0  0  0  0  0  0  0  0  0
   -6.7202   -2.4409    0.4307 H   0  0  0  0  0  0  0  0  0  0  0  0
   -5.9474   -2.3901   -1.1536 H   0  0  0  0  0  0  0  0  0  0  0  0
   -4.9608   -2.1854    0.4007 H   0  0  0  0  0  0  0  0  0  0  0  0
   -5.2032    1.3862    0.3632 H   0  0  0  0  0  0  0  0  0  0  0  0
   -4.3694    0.0220    1.1102 H   0  0  0  0  0  0  0  0  0  0  0  0
   -4.2331    0.7071   -1.8905 H   0  0  0  0  0  0  0  0  0  0  0  0
   -2.2204    1.7603   -1.2429 H   0  0  0  0  0  0  0  0  0  0  0  0
   -3.1399    2.0243    0.2387 H   0  0  0  0  0  0  0  0  0  0  0  0
   -2.3912   -0.3264    2.4018 H   0  0  0  0  0  0  0  0  0  0  0  0
   -1.0446    0.8716    2.2957 H   0  0  0  0  0  0  0  0  0  0  0  0
   -2.7079    1.4656    2.0641 H   0  0  0  0  0  0  0  0  0  0  0  0
   -0.2940    1.9901   -1.6883 H   0  0  0  0  0  0  0  0  0  0  0  0
    2.7268   -1.7356    1.8236 H   0  0  0  0  0  0  0  0  0  0  0  0
    4.1926   -0.9160   -0.4948 H   0  0  0  0  0  0  0  0  0  0  0  0
    7.6036   -0.3236    2.3141 H   0  0  0  0  0  0  0  0  0  0  0  0
    9.7666    0.1471    1.1248 H   0  0  0  0  0  0  0  0  0  0  0  0
    9.7849    0.6640   -1.2421 H   0  0  0  0  0  0  0  0  0  0  0  0
    7.6181    0.7276   -2.5014 H   0  0  0  0  0  0  0  0  0  0  0  0
    5.5238    0.2807   -1.3463 H   0  0  0  0  0  0  0  0  0  0  0  0
  2  3  1  0
  3  4  1  0
  3  5  1  0
  5  6  1  0
  6  7  1  0
  7  8  1  0
  8  9  1  0
  8 10  1  0
 10 11  1  0
 11 12  2  0
  8 13  1  0
 13 14  2  0
 14 15  1  0
 15 16  1  0
 16 17  1  0
 17 18  1  0
 18 19  1  0
 19 20  2  0
 19 21  1  0
 21 22  2  0
 22 23  1  0
 23 24  2  0
 24 25  1  0
 25 26  2  0
 16 27  2  0
 11  6  1  0
 27 13  1  0
 26 21  1  0
  1 28  1  0
  2 29  1  0
  2 30  1  0
  2 31  1  0
  3 32  1  0
  4 33  1  0
  4 34  1  0
  4 35  1  0
  5 36  1  0
  5 37  1  0
  6 38  1  0
  7 39  1  0
  7 40  1  0
  9 41  1  0
  9 42  1  0
  9 43  1  0
 14 44  1  0
 17 45  1  0
 18 46  1  0
 22 47  1  0
 23 48  1  0
 24 49  1  0
 25 50  1  0
 26 51  1  0
M  END
>  <Unnamed: 0>  (138) 
840

>  <ID>  (138) 
TRAIN_0840

>  <Canonical_Smiles>  (138) 
Br.CC(C)CC1CC(C)(OC1=O)c2csc(NNC(=O)c3ccccc3)n2

>  <Inhibition>  (138) 
7.15678

>  <TDC_conf_true_inhibitor>  (138) 
0

>  <TDC_conf_non_inhibitor>  (138) 
1

>  <split>  (138) 
1

$$$$
138
     RDKit          3D

 50 52  0  0  0  0  0  0  0  0999 V2000
    3.7845    3.0295   -1.0587 C   0  0  0  0  0  0  0  0  0  0  0  0
    3.5895    1.5755   -1.4575 C   0  0  0  0  0  0  0  0  0  0  0  0
    3.8922    0.6373   -0.3336 C   0  0  0  0  0  0  0  0  0  0  0  0
    5.1887    0.1578   -0.2176 N   0  0  0  0  0  0  0  0  0  0  0  0
    5.2814   -0.6595    0.8076 C   0  0  0  0  0  0  0  0  0  0  0  0
    6.5313   -1.3627    1.2049 C   0  0  0  0  0  0  0  0  0  0  0  0
    3.8342   -0.8903    1.6995 S   0  0  0  0  0  0  0  0  0  0  0  0
    3.0140    0.1778    0.6344 C   0  0  0  0  0  0  0  0  0  0  0  0
    1.5568    0.4788    0.8258 C   0  0  0  0  0  0  0  0  0  0  0  0
    0.6969   -0.5540    0.2547 N   0  0  0  0  0  0  0  0  0  0  0  0
   -0.6858   -0.3146    0.3929 C   0  0  0  0  0  0  0  0  0  0  0  0
   -1.0793    0.8618    0.9103 N   0  0  0  0  0  0  0  0  0  0  0  0
   -2.3864    1.1190    1.0262 C   0  0  0  0  0  0  0  0  0  0  0  0
   -3.3172    0.2305    0.6603 N   0  0  0  0  0  0  0  0  0  0  0  0
   -2.9261   -0.9455    0.1207 C   0  0  0  0  0  0  0  0  0  0  0  0
   -4.0596   -1.8684   -0.2242 C   0  0  0  0  0  0  0  0  0  0  0  0
   -4.1204   -2.2750   -1.6995 C   0  0  0  0  0  0  0  0  0  0  0  0
   -2.9722   -2.9870   -2.2684 N   0  0  0  0  0  0  0  0  0  0  0  0
   -2.0768   -3.5699   -1.2782 C   0  0  0  0  0  0  0  0  0  0  0  0
   -1.0892   -2.5474   -0.6959 C   0  0  0  0  0  0  0  0  0  0  0  0
   -1.5929   -1.2764   -0.0544 C   0  0  0  0  0  0  0  0  0  0  0  0
   -2.7907    2.3429    1.5693 N   0  0  0  0  0  0  0  0  0  0  0  0
   -4.1621    2.7072    1.2501 C   0  0  0  0  0  0  0  0  0  0  0  0
   -1.7919    3.3937    1.4580 C   0  0  0  0  0  0  0  0  0  0  0  0
    3.5788    3.6909   -1.9074 H   0  0  0  0  0  0  0  0  0  0  0  0
    4.8104    3.2127   -0.7249 H   0  0  0  0  0  0  0  0  0  0  0  0
    3.1128    3.3097   -0.2397 H   0  0  0  0  0  0  0  0  0  0  0  0
    2.5620    1.4245   -1.8051 H   0  0  0  0  0  0  0  0  0  0  0  0
    4.2413    1.3415   -2.3062 H   0  0  0  0  0  0  0  0  0  0  0  0
    6.6144   -2.3115    0.6683 H   0  0  0  0  0  0  0  0  0  0  0  0
    6.5642   -1.5662    2.2795 H   0  0  0  0  0  0  0  0  0  0  0  0
    7.4041   -0.7512    0.9559 H   0  0  0  0  0  0  0  0  0  0  0  0
    1.3405    1.4482    0.3602 H   0  0  0  0  0  0  0  0  0  0  0  0
    1.3561    0.5877    1.8993 H   0  0  0  0  0  0  0  0  0  0  0  0
    0.9249   -1.4593    0.6535 H   0  0  0  0  0  0  0  0  0  0  0  0
   -5.0086   -1.3708    0.0175 H   0  0  0  0  0  0  0  0  0  0  0  0
   -4.0250   -2.7436    0.4352 H   0  0  0  0  0  0  0  0  0  0  0  0
   -5.0048   -2.9132   -1.8244 H   0  0  0  0  0  0  0  0  0  0  0  0
   -4.2955   -1.3855   -2.3172 H   0  0  0  0  0  0  0  0  0  0  0  0
   -3.3083   -3.7063   -2.9088 H   0  0  0  0  0  0  0  0  0  0  0  0
   -2.6230   -4.1070   -0.4926 H   0  0  0  0  0  0  0  0  0  0  0  0
   -1.4792   -4.3396   -1.7856 H   0  0  0  0  0  0  0  0  0  0  0  0
   -0.4129   -2.2568   -1.5126 H   0  0  0  0  0  0  0  0  0  0  0  0
   -0.4831   -3.0841    0.0466 H   0  0  0  0  0  0  0  0  0  0  0  0
   -4.4196    3.6617    1.7231 H   0  0  0  0  0  0  0  0  0  0  0  0
   -4.3064    2.8221    0.1682 H   0  0  0  0  0  0  0  0  0  0  0  0
   -4.8786    1.9698    1.6350 H   0  0  0  0  0  0  0  0  0  0  0  0
   -0.8857    3.1481    2.0235 H   0  0  0  0  0  0  0  0  0  0  0  0
   -1.5226    3.5857    0.4119 H   0  0  0  0  0  0  0  0  0  0  0  0
   -2.1750    4.3313    1.8793 H   0  0  0  0  0  0  0  0  0  0  0  0
  1  2  1  0
  2  3  1  0
  3  4  1  0
  4  5  2  0
  5  6  1  0
  5  7  1  0
  7  8  1  0
  8  9  1  0
  9 10  1  0
 10 11  1  0
 11 12  2  0
 12 13  1  0
 13 14  2  0
 14 15  1  0
 15 16  1  0
 16 17  1  0
 17 18  1  0
 18 19  1  0
 19 20  1  0
 20 21  1  0
 13 22  1  0
 22 23  1  0
 22 24  1  0
  8  3  2  0
 21 11  1  0
 21 15  2  0
  1 25  1  0
  1 26  1  0
  1 27  1  0
  2 28  1  0
  2 29  1  0
  6 30  1  0
  6 31  1  0
  6 32  1  0
  9 33  1  0
  9 34  1  0
 10 35  1  0
 16 36  1  0
 16 37  1  0
 17 38  1  0
 17 39  1  0
 18 40  1  0
 19 41  1  0
 19 42  1  0
 20 43  1  0
 20 44  1  0
 23 45  1  0
 23 46  1  0
 23 47  1  0
 24 48  1  0
 24 49  1  0
 24 50  1  0
M  END
>  <Unnamed: 0>  (139) 
847

>  <ID>  (139) 
TRAIN_0847

>  <Canonical_Smiles>  (139) 
CCc1nc(C)sc1CNc2nc(nc3CCNCCc23)N(C)C

>  <Inhibition>  (139) 
57.425426

>  <TDC_conf_true_inhibitor>  (139) 
1

>  <TDC_conf_non_inhibitor>  (139) 
0

>  <split>  (139) 
1

$$$$
139
     RDKit          3D

 23 25  0  0  0  0  0  0  0  0999 V2000
    2.7664   -4.9060   -1.4265 Cl  0  0  0  0  0  0  0  0  0  0  0  0
    2.1838   -3.3169   -1.0870 C   0  0  0  0  0  0  0  0  0  0  0  0
    0.8688   -3.1859   -0.6387 C   0  0  0  0  0  0  0  0  0  0  0  0
    0.3330   -1.9404   -0.3463 C   0  0  0  0  0  0  0  0  0  0  0  0
   -0.9384   -1.8523    0.0836 N   0  0  0  0  0  0  0  0  0  0  0  0
   -1.4112   -0.6111    0.3546 C   0  0  0  0  0  0  0  0  0  0  0  0
   -0.6310    0.5211    0.2000 C   0  0  0  0  0  0  0  0  0  0  0  0
    0.6566    0.4470   -0.2339 N   0  0  0  0  0  0  0  0  0  0  0  0
    1.1355   -0.7827   -0.5060 C   0  0  0  0  0  0  0  0  0  0  0  0
    2.4415   -0.9213   -0.9520 C   0  0  0  0  0  0  0  0  0  0  0  0
    2.9743   -2.1784   -1.2444 C   0  0  0  0  0  0  0  0  0  0  0  0
    4.6095   -2.2516   -1.7936 Cl  0  0  0  0  0  0  0  0  0  0  0  0
   -1.1774    1.7893    0.4980 N   0  0  0  0  0  0  0  0  0  0  0  0
   -0.5392    3.0006    0.3978 C   0  0  0  0  0  0  0  0  0  0  0  0
   -1.3459    3.9747    0.7550 N   0  0  0  0  0  0  0  0  0  0  0  0
   -2.4974    3.3072    1.0756 C   0  0  0  0  0  0  0  0  0  0  0  0
   -2.4492    1.9750    0.9370 N   0  0  0  0  0  0  0  0  0  0  0  0
   -3.6804    3.9829    1.5302 C   0  0  0  0  0  0  0  0  0  0  0  0
   -4.6411    4.5248    1.8987 N   0  0  0  0  0  0  0  0  0  0  0  0
    0.2431   -4.0669   -0.5123 H   0  0  0  0  0  0  0  0  0  0  0  0
   -2.4405   -0.5765    0.6993 H   0  0  0  0  0  0  0  0  0  0  0  0
    3.0529   -0.0297   -1.0727 H   0  0  0  0  0  0  0  0  0  0  0  0
    0.4863    3.0972    0.0665 H   0  0  0  0  0  0  0  0  0  0  0  0
  1  2  1  0
  2  3  2  0
  3  4  1  0
  4  5  2  0
  5  6  1  0
  6  7  2  0
  7  8  1  0
  8  9  2  0
  9 10  1  0
 10 11  2  0
 11 12  1  0
  7 13  1  0
 13 14  1  0
 14 15  2  0
 15 16  1  0
 16 17  2  0
 16 18  1  0
 18 19  3  0
 11  2  1  0
  9  4  1  0
 17 13  1  0
  3 20  1  0
  6 21  1  0
 10 22  1  0
 14 23  1  0
M  END
>  <Unnamed: 0>  (140) 
864

>  <ID>  (140) 
TRAIN_0864

>  <Canonical_Smiles>  (140) 
Clc1cc2ncc(nc2cc1Cl)n3cnc(n3)C#N

>  <Inhibition>  (140) 
1.254641

>  <TDC_conf_true_inhibitor>  (140) 
0

>  <TDC_conf_non_inhibitor>  (140) 
1

>  <split>  (140) 
1

$$$$
140
     RDKit          3D

 46 50  0  0  0  0  0  0  0  0999 V2000
    0.6828    0.0000    0.0000 Cl  0  0  0  0  0  0  0  0  0  0  0  0
    1.5634    2.9049   -1.5433 O   0  0  0  0  0  0  0  0  0  0  0  0
    0.8394    1.7591   -1.9138 C   0  0  0  0  0  0  0  0  0  0  0  0
   -0.2948    1.8648   -2.7044 C   0  0  0  0  0  0  0  0  0  0  0  0
   -0.9916    0.7209   -3.0564 C   0  0  0  0  0  0  0  0  0  0  0  0
   -0.5814   -0.5256   -2.6367 C   0  0  0  0  0  0  0  0  0  0  0  0
    0.5476   -0.5869   -1.8545 C   0  0  0  0  0  0  0  0  0  0  0  0
    1.2615    0.5364   -1.4885 C   0  0  0  0  0  0  0  0  0  0  0  0
    2.4545    0.4678   -0.6615 C   0  0  0  0  0  0  0  0  0  0  0  0
    3.3092    1.1976   -0.1553 N   0  0  0  0  0  0  0  0  0  0  0  0
    4.3111    0.9022    0.5655 C   0  0  0  0  0  0  0  0  0  0  0  0
    5.2787    1.7625    1.1348 C   0  0  0  0  0  0  0  0  0  0  0  0
    6.2910    1.2651    1.8851 C   0  0  0  0  0  0  0  0  0  0  0  0
    6.4702   -0.0666    2.1556 C   0  0  0  0  0  0  0  0  0  0  0  0
    5.5319   -0.9546    1.6095 C   0  0  0  0  0  0  0  0  0  0  0  0
    4.5430   -0.4607    0.8757 C   0  0  0  0  0  0  0  0  0  0  0  0
    3.1131   -1.1692   -0.0280 S   0  0  0  0  0  0  0  0  0  0  0  0
   -1.2606   -1.7242   -2.9704 N   0  0  0  0  0  0  0  0  0  0  0  0
   -2.2561   -2.0723   -2.2275 C   0  0  0  0  0  0  0  0  0  0  0  0
   -2.9685   -3.1992   -2.4637 N   0  0  0  0  0  0  0  0  0  0  0  0
   -3.9970   -3.5165   -1.6591 C   0  0  0  0  0  0  0  0  0  0  0  0
   -4.3647   -2.7526   -0.6039 N   0  0  0  0  0  0  0  0  0  0  0  0
   -3.6953   -1.6309   -0.3270 C   0  0  0  0  0  0  0  0  0  0  0  0
   -2.6278   -1.2932   -1.1548 C   0  0  0  0  0  0  0  0  0  0  0  0
   -2.1254   -0.1655   -0.6970 O   0  0  0  0  0  0  0  0  0  0  0  0
   -2.7932    0.2378    0.3584 C   0  0  0  0  0  0  0  0  0  0  0  0
   -2.6742    1.3311    1.1897 C   0  0  0  0  0  0  0  0  0  0  0  0
   -3.5221    1.5522    2.2752 C   0  0  0  0  0  0  0  0  0  0  0  0
   -4.5248    0.6457    2.5374 C   0  0  0  0  0  0  0  0  0  0  0  0
   -4.6489   -0.4502    1.7092 C   0  0  0  0  0  0  0  0  0  0  0  0
   -3.8047   -0.6572    0.6398 C   0  0  0  0  0  0  0  0  0  0  0  0
   -0.6828    0.0000    0.0000 H   0  0  0  0  0  0  0  0  0  0  0  0
    1.2336    3.7854   -1.8674 H   0  0  0  0  0  0  0  0  0  0  0  0
   -0.6481    2.8160   -3.0524 H   0  0  0  0  0  0  0  0  0  0  0  0
   -1.8661    0.8460   -3.6709 H   0  0  0  0  0  0  0  0  0  0  0  0
    0.9099   -1.5389   -1.5002 H   0  0  0  0  0  0  0  0  0  0  0  0
    5.2284    2.8311    0.9819 H   0  0  0  0  0  0  0  0  0  0  0  0
    7.0579    1.9203    2.3393 H   0  0  0  0  0  0  0  0  0  0  0  0
    7.2553   -0.5008    2.7429 H   0  0  0  0  0  0  0  0  0  0  0  0
    5.5920   -2.0262    1.7694 H   0  0  0  0  0  0  0  0  0  0  0  0
   -2.7170   -3.8061   -3.2593 H   0  0  0  0  0  0  0  0  0  0  0  0
   -4.5462   -4.4203   -1.8719 H   0  0  0  0  0  0  0  0  0  0  0  0
   -1.8892    2.0687    1.0090 H   0  0  0  0  0  0  0  0  0  0  0  0
   -3.3963    2.4339    2.9142 H   0  0  0  0  0  0  0  0  0  0  0  0
   -5.1668    0.8363    3.3796 H   0  0  0  0  0  0  0  0  0  0  0  0
   -5.4308   -1.1681    1.9040 H   0  0  0  0  0  0  0  0  0  0  0  0
  2  3  1  0
  3  4  2  0
  4  5  1  0
  5  6  2  0
  6  7  1  0
  7  8  2  0
  8  9  1  0
  9 10  2  0
 10 11  1  0
 11 12  2  0
 12 13  1  0
 13 14  2  0
 14 15  1  0
 15 16  2  0
 16 17  1  0
  6 18  1  0
 18 19  2  0
 19 20  1  0
 20 21  1  0
 21 22  2  0
 22 23  1  0
 23 24  2  0
 24 25  1  0
 25 26  1  0
 26 27  2  0
 27 28  1  0
 28 29  2  0
 29 30  1  0
 30 31  2  0
  8  3  1  0
 17  9  1  0
 16 11  1  0
 24 19  1  0
 31 23  1  0
 31 26  1  0
  1 32  1  0
  2 33  1  0
  4 34  1  0
  5 35  1  0
  7 36  1  0
 12 37  1  0
 13 38  1  0
 14 39  1  0
 15 40  1  0
 20 41  1  0
 21 42  1  0
 27 43  1  0
 28 44  1  0
 29 45  1  0
 30 46  1  0
M  END
>  <Unnamed: 0>  (141) 
866

>  <ID>  (141) 
TRAIN_0866

>  <Canonical_Smiles>  (141) 
Cl.Oc1ccc(cc1c2nc3ccccc3s2)\N=C/4\NC=Nc5c4oc6ccccc56

>  <Inhibition>  (141) 
49.100627

>  <TDC_conf_true_inhibitor>  (141) 
0

>  <TDC_conf_non_inhibitor>  (141) 
1

>  <split>  (141) 
1

$$$$
141
     RDKit          3D

 57 60  0  0  0  0  0  0  0  0999 V2000
    0.2513   -3.5060    2.1787 C   0  0  0  0  0  0  0  0  0  0  0  0
    1.2198   -2.4591    1.6951 C   0  0  0  0  0  0  0  0  0  0  0  0
    2.1558   -1.9547    2.6161 C   0  0  0  0  0  0  0  0  0  0  0  0
    3.0831   -0.9887    2.2333 C   0  0  0  0  0  0  0  0  0  0  0  0
    3.1184   -0.5531    0.9146 C   0  0  0  0  0  0  0  0  0  0  0  0
    2.1802   -1.0328   -0.0027 C   0  0  0  0  0  0  0  0  0  0  0  0
    1.1840   -1.9346    0.3859 C   0  0  0  0  0  0  0  0  0  0  0  0
    0.1873   -2.4259   -0.5306 N   0  0  0  0  0  0  0  0  0  0  0  0
   -0.3021   -1.5964   -1.9100 S   0  0  0  0  0  6  0  0  0  0  0  0
    0.8585   -1.2837   -2.7194 O   0  0  0  0  0  0  0  0  0  0  0  0
   -1.3871   -2.3562   -2.4933 O   0  0  0  0  0  0  0  0  0  0  0  0
   -0.9587   -0.0555   -1.2631 C   0  0  0  0  0  0  0  0  0  0  0  0
   -2.4069   -0.0653   -0.8172 C   0  0  0  0  0  0  0  0  0  0  0  0
   -3.4745   -0.2334   -1.9309 C   0  0  0  0  0  0  0  0  0  0  0  0
   -4.7651    0.3061   -1.2763 C   0  0  0  0  0  0  0  0  0  0  0  0
   -4.3071    0.6791    0.1517 C   0  0  0  0  0  0  0  0  0  0  0  0
   -4.0828   -0.6408    0.9261 C   0  0  0  0  0  0  0  0  0  0  0  0
   -2.8173   -1.1032    0.2303 C   0  0  0  0  0  0  0  0  0  0  0  0
   -2.2348   -2.1477    0.4792 O   0  0  0  0  0  0  0  0  0  0  0  0
   -2.8752    1.2317   -0.0764 C   0  0  0  0  0  0  0  0  0  0  0  0
   -2.8328    2.5171   -0.9269 C   0  0  0  0  0  0  0  0  0  0  0  0
   -2.1112    1.5462    1.2287 C   0  0  0  0  0  0  0  0  0  0  0  0
    4.0411    0.4898    0.5774 N   0  0  0  0  0  0  0  0  0  0  0  0
    4.8733    0.3458   -0.6384 C   0  0  0  0  0  0  0  0  0  0  0  0
    5.5942    1.6867   -0.7593 C   0  0  0  0  0  0  0  0  0  0  0  0
    4.5287    2.7557   -0.5674 C   0  0  0  0  0  0  0  0  0  0  0  0
    3.3954    2.0878    0.6445 S   0  0  0  0  0  6  0  0  0  0  0  0
    3.6799    2.6395    1.9495 O   0  0  0  0  0  0  0  0  0  0  0  0
    2.0659    2.1002    0.0688 O   0  0  0  0  0  0  0  0  0  0  0  0
    0.0973   -4.2823    1.4227 H   0  0  0  0  0  0  0  0  0  0  0  0
   -0.7061   -3.0443    2.4354 H   0  0  0  0  0  0  0  0  0  0  0  0
    0.6331   -4.0139    3.0712 H   0  0  0  0  0  0  0  0  0  0  0  0
    2.1625   -2.3102    3.6446 H   0  0  0  0  0  0  0  0  0  0  0  0
    3.7836   -0.5882    2.9616 H   0  0  0  0  0  0  0  0  0  0  0  0
    2.2190   -0.6469   -1.0120 H   0  0  0  0  0  0  0  0  0  0  0  0
   -0.6543   -2.8094   -0.0735 H   0  0  0  0  0  0  0  0  0  0  0  0
   -0.8322    0.6703   -2.0758 H   0  0  0  0  0  0  0  0  0  0  0  0
   -0.2916    0.2672   -0.4608 H   0  0  0  0  0  0  0  0  0  0  0  0
   -3.6232   -1.2776   -2.2246 H   0  0  0  0  0  0  0  0  0  0  0  0
   -3.2276    0.3368   -2.8327 H   0  0  0  0  0  0  0  0  0  0  0  0
   -5.1396    1.1803   -1.8191 H   0  0  0  0  0  0  0  0  0  0  0  0
   -5.5632   -0.4439   -1.2766 H   0  0  0  0  0  0  0  0  0  0  0  0
   -4.9975    1.3579    0.6583 H   0  0  0  0  0  0  0  0  0  0  0  0
   -3.8910   -0.4703    1.9879 H   0  0  0  0  0  0  0  0  0  0  0  0
   -4.8942   -1.3589    0.7875 H   0  0  0  0  0  0  0  0  0  0  0  0
   -3.2891    2.4189   -1.9144 H   0  0  0  0  0  0  0  0  0  0  0  0
   -3.3543    3.3317   -0.4112 H   0  0  0  0  0  0  0  0  0  0  0  0
   -1.7981    2.8381   -1.0939 H   0  0  0  0  0  0  0  0  0  0  0  0
   -1.1236    1.9693    1.0122 H   0  0  0  0  0  0  0  0  0  0  0  0
   -1.9381    0.6737    1.8646 H   0  0  0  0  0  0  0  0  0  0  0  0
   -2.6627    2.2825    1.8243 H   0  0  0  0  0  0  0  0  0  0  0  0
    5.5954   -0.4669   -0.5139 H   0  0  0  0  0  0  0  0  0  0  0  0
    4.2672    0.1549   -1.5294 H   0  0  0  0  0  0  0  0  0  0  0  0
    6.3442    1.7723    0.0371 H   0  0  0  0  0  0  0  0  0  0  0  0
    6.1104    1.7924   -1.7179 H   0  0  0  0  0  0  0  0  0  0  0  0
    4.9430    3.6987   -0.2054 H   0  0  0  0  0  0  0  0  0  0  0  0
    3.9696    2.9191   -1.4934 H   0  0  0  0  0  0  0  0  0  0  0  0
  1  2  1  0
  2  3  2  0
  3  4  1  0
  4  5  2  0
  5  6  1  0
  6  7  2  0
  7  8  1  0
  8  9  1  0
  9 10  2  0
  9 11  2  0
  9 12  1  0
 12 13  1  0
 13 14  1  0
 14 15  1  0
 15 16  1  0
 16 17  1  0
 17 18  1  0
 18 19  2  0
 16 20  1  0
 20 21  1  0
 20 22  1  0
  5 23  1  0
 23 24  1  0
 24 25  1  0
 25 26  1  0
 26 27  1  0
 27 28  2  0
 27 29  2  0
  7  2  1  0
 18 13  1  0
 20 13  1  0
 27 23  1  0
  1 30  1  0
  1 31  1  0
  1 32  1  0
  3 33  1  0
  4 34  1  0
  6 35  1  0
  8 36  1  0
 12 37  1  0
 12 38  1  0
 14 39  1  0
 14 40  1  0
 15 41  1  0
 15 42  1  0
 16 43  1  0
 17 44  1  0
 17 45  1  0
 21 46  1  0
 21 47  1  0
 21 48  1  0
 22 49  1  0
 22 50  1  0
 22 51  1  0
 24 52  1  0
 24 53  1  0
 25 54  1  0
 25 55  1  0
 26 56  1  0
 26 57  1  0
M  END
>  <Unnamed: 0>  (142) 
868

>  <ID>  (142) 
TRAIN_0868

>  <Canonical_Smiles>  (142) 
Cc1ccc(cc1NS(=O)(=O)CC23CCC(CC2=O)C3(C)C)N4CCCS4(=O)=O

>  <Inhibition>  (142) 
74.747151

>  <TDC_conf_true_inhibitor>  (142) 
1

>  <TDC_conf_non_inhibitor>  (142) 
0

>  <split>  (142) 
1

$$$$
142
     RDKit          3D

 50 52  0  0  0  0  0  0  0  0999 V2000
    7.4213    0.9723    1.1583 C   0  0  0  0  0  0  0  0  0  0  0  0
    6.3705   -0.0520    0.7831 C   0  0  0  0  0  0  0  0  0  0  0  0
    6.8110   -1.1725    0.3055 N   0  0  0  0  0  0  0  0  0  0  0  0
    5.8932   -2.1094   -0.0216 N   0  0  0  0  0  0  0  0  0  0  0  0
    4.5414   -1.9799    0.1150 C   0  0  0  0  0  0  0  0  0  0  0  0
    3.7763   -2.8790   -0.2269 O   0  0  0  0  0  0  0  0  0  0  0  0
    4.0400   -0.6915    0.6722 C   0  0  0  0  0  0  0  0  0  0  0  0
    4.9210    0.2868    0.9691 C   0  0  0  0  0  0  0  0  0  0  0  0
    4.5986    1.6840    1.4179 C   0  0  0  0  0  0  0  0  0  0  0  0
    2.5699   -0.4932    0.8954 C   0  0  0  0  0  0  0  0  0  0  0  0
    2.1367    0.2351    1.7799 O   0  0  0  0  0  0  0  0  0  0  0  0
    1.7438   -1.1940    0.0493 N   0  0  0  0  0  0  0  0  0  0  0  0
    0.2948   -1.2789    0.2435 C   0  0  0  0  0  0  0  0  0  0  0  0
   -0.3073   -2.1940   -0.8372 C   0  0  0  0  0  0  0  0  0  0  0  0
   -1.8071   -2.3896   -0.6280 C   0  0  0  0  0  0  0  0  0  0  0  0
   -2.4988   -1.0972   -0.3941 C   0  0  0  0  0  0  0  0  0  0  0  0
   -3.7796   -0.8406   -0.5411 N   0  0  0  0  0  0  0  0  0  0  0  0
   -3.9534    0.4798   -0.1737 C   0  0  0  0  0  0  0  0  0  0  0  0
   -2.7344    1.0278    0.1804 C   0  0  0  0  0  0  0  0  0  0  0  0
   -1.8306    0.0139    0.0388 N   0  0  0  0  0  0  0  0  0  0  0  0
   -0.3959    0.1006    0.2198 C   0  0  0  0  0  0  0  0  0  0  0  0
   -5.3212    1.1259   -0.2378 C   0  0  0  0  0  0  0  0  0  0  0  0
   -5.5311    1.7416   -1.6337 C   0  0  0  0  0  0  0  0  0  0  0  0
   -5.4685    2.2349    0.8237 C   0  0  0  0  0  0  0  0  0  0  0  0
   -6.4306    0.0827    0.0144 C   0  0  0  0  0  0  0  0  0  0  0  0
    8.4018    0.4937    1.2443 H   0  0  0  0  0  0  0  0  0  0  0  0
    7.1905    1.4419    2.1166 H   0  0  0  0  0  0  0  0  0  0  0  0
    7.4754    1.7352    0.3754 H   0  0  0  0  0  0  0  0  0  0  0  0
    6.2493   -2.9816   -0.3974 H   0  0  0  0  0  0  0  0  0  0  0  0
    5.1946    2.4104    0.8516 H   0  0  0  0  0  0  0  0  0  0  0  0
    3.5597    1.9745    1.2378 H   0  0  0  0  0  0  0  0  0  0  0  0
    4.8170    1.8098    2.4821 H   0  0  0  0  0  0  0  0  0  0  0  0
    2.1827   -1.9736   -0.4433 H   0  0  0  0  0  0  0  0  0  0  0  0
    0.1355   -1.7398    1.2274 H   0  0  0  0  0  0  0  0  0  0  0  0
   -0.1243   -1.7569   -1.8299 H   0  0  0  0  0  0  0  0  0  0  0  0
    0.1895   -3.1733   -0.8341 H   0  0  0  0  0  0  0  0  0  0  0  0
   -2.2369   -2.8885   -1.5047 H   0  0  0  0  0  0  0  0  0  0  0  0
   -1.9781   -3.0454    0.2349 H   0  0  0  0  0  0  0  0  0  0  0  0
   -2.4497    2.0215    0.5019 H   0  0  0  0  0  0  0  0  0  0  0  0
   -0.0157    0.7086   -0.6106 H   0  0  0  0  0  0  0  0  0  0  0  0
   -0.2227    0.6470    1.1518 H   0  0  0  0  0  0  0  0  0  0  0  0
   -5.4246    0.9853   -2.4212 H   0  0  0  0  0  0  0  0  0  0  0  0
   -6.5296    2.1832   -1.7281 H   0  0  0  0  0  0  0  0  0  0  0  0
   -4.7961    2.5299   -1.8365 H   0  0  0  0  0  0  0  0  0  0  0  0
   -6.4780    2.6630    0.8146 H   0  0  0  0  0  0  0  0  0  0  0  0
   -5.2818    1.8447    1.8311 H   0  0  0  0  0  0  0  0  0  0  0  0
   -4.7649    3.0568    0.6504 H   0  0  0  0  0  0  0  0  0  0  0  0
   -6.3032   -0.4048    0.9885 H   0  0  0  0  0  0  0  0  0  0  0  0
   -7.4240    0.5483    0.0009 H   0  0  0  0  0  0  0  0  0  0  0  0
   -6.4266   -0.7036   -0.7507 H   0  0  0  0  0  0  0  0  0  0  0  0
  1  2  1  0
  2  3  2  0
  3  4  1  0
  4  5  1  0
  5  6  2  0
  5  7  1  0
  7  8  2  0
  8  9  1  0
  7 10  1  0
 10 11  2  0
 10 12  1  0
 12 13  1  0
 13 14  1  0
 14 15  1  0
 15 16  1  0
 16 17  2  0
 17 18  1  0
 18 19  2  0
 19 20  1  0
 20 21  1  0
 18 22  1  0
 22 23  1  0
 22 24  1  0
 22 25  1  0
  8  2  1  0
 21 13  1  0
 20 16  1  0
  1 26  1  0
  1 27  1  0
  1 28  1  0
  4 29  1  0
  9 30  1  0
  9 31  1  0
  9 32  1  0
 12 33  1  0
 13 34  1  0
 14 35  1  0
 14 36  1  0
 15 37  1  0
 15 38  1  0
 19 39  1  0
 21 40  1  0
 21 41  1  0
 23 42  1  0
 23 43  1  0
 23 44  1  0
 24 45  1  0
 24 46  1  0
 24 47  1  0
 25 48  1  0
 25 49  1  0
 25 50  1  0
M  END
>  <Unnamed: 0>  (143) 
870

>  <ID>  (143) 
TRAIN_0870

>  <Canonical_Smiles>  (143) 
CC1=NNC(=O)C(=C1C)C(=O)NC2CCc3nc(cn3C2)C(C)(C)C

>  <Inhibition>  (143) 
21.085648

>  <TDC_conf_true_inhibitor>  (143) 
1

>  <TDC_conf_non_inhibitor>  (143) 
0

>  <split>  (143) 
1

$$$$
143
     RDKit          3D

 56 58  0  0  0  0  0  0  0  0999 V2000
    3.7621   -3.8090   -1.3761 C   0  0  0  0  0  0  0  0  0  0  0  0
    4.7982   -2.8465   -1.5204 O   0  0  0  0  0  0  0  0  0  0  0  0
    4.5952   -1.6214   -0.9442 C   0  0  0  0  0  0  0  0  0  0  0  0
    5.6478   -0.7248   -1.1018 C   0  0  0  0  0  0  0  0  0  0  0  0
    5.5718    0.5579   -0.5673 C   0  0  0  0  0  0  0  0  0  0  0  0
    6.6721    1.3385   -0.7991 O   0  0  0  0  0  0  0  0  0  0  0  0
    6.6573    2.6543   -0.2620 C   0  0  0  0  0  0  0  0  0  0  0  0
    4.4231    0.9396    0.1343 C   0  0  0  0  0  0  0  0  0  0  0  0
    3.3376    0.0635    0.3239 C   0  0  0  0  0  0  0  0  0  0  0  0
    3.4549   -1.2209   -0.2393 C   0  0  0  0  0  0  0  0  0  0  0  0
    2.2054    0.4552    1.0096 N   0  0  0  0  0  0  0  0  0  0  0  0
    2.1354    1.6605    1.8331 C   0  0  0  0  0  0  0  0  0  0  0  0
    0.8647    1.5048    2.6674 C   0  0  0  0  0  0  0  0  0  0  0  0
   -0.0031    0.5090    1.8997 C   0  0  0  0  0  0  0  0  0  0  0  0
    1.0390   -0.4089    1.2279 C   0  0  0  0  0  0  0  0  0  0  0  0
   -0.9763    1.0940    0.9471 N   0  0  0  0  0  0  0  0  0  0  0  0
   -0.5502    2.2071    0.1030 C   0  0  0  0  0  0  0  0  0  0  0  0
   -2.0563    0.2721    0.5979 C   0  0  0  0  0  0  0  0  0  0  0  0
   -2.1392   -0.8867    1.0164 O   0  0  0  0  0  0  0  0  0  0  0  0
   -3.1117    0.8530   -0.3394 C   0  0  0  0  0  0  0  0  0  0  0  0
   -4.4066    0.1072   -0.1921 C   0  0  0  0  0  0  0  0  0  0  0  0
   -4.8290   -0.9079   -0.9725 C   0  0  0  0  0  0  0  0  0  0  0  0
   -4.0236   -1.4050   -1.9798 N   0  0  0  0  0  0  0  0  0  0  0  0
   -6.0460   -1.5160   -0.8075 N   0  0  0  0  0  0  0  0  0  0  0  0
   -6.8058   -1.1225    0.1591 C   0  0  0  0  0  0  0  0  0  0  0  0
   -8.1436   -1.7678    0.3786 C   0  0  0  0  0  0  0  0  0  0  0  0
   -6.4673   -0.1273    1.0207 N   0  0  0  0  0  0  0  0  0  0  0  0
   -5.2933    0.5478    0.9053 C   0  0  0  0  0  0  0  0  0  0  0  0
   -5.0033    1.4709    1.6596 O   0  0  0  0  0  0  0  0  0  0  0  0
    2.8382   -3.4696   -1.8558 H   0  0  0  0  0  0  0  0  0  0  0  0
    3.5952   -4.0544   -0.3222 H   0  0  0  0  0  0  0  0  0  0  0  0
    4.0830   -4.7239   -1.8835 H   0  0  0  0  0  0  0  0  0  0  0  0
    6.5366   -1.0287   -1.6488 H   0  0  0  0  0  0  0  0  0  0  0  0
    7.6051    3.1335   -0.5255 H   0  0  0  0  0  0  0  0  0  0  0  0
    6.5871    2.6348    0.8306 H   0  0  0  0  0  0  0  0  0  0  0  0
    5.8504    3.2505   -0.7008 H   0  0  0  0  0  0  0  0  0  0  0  0
    4.3566    1.9428    0.5365 H   0  0  0  0  0  0  0  0  0  0  0  0
    2.6372   -1.9203   -0.1160 H   0  0  0  0  0  0  0  0  0  0  0  0
    3.0021    1.7594    2.4967 H   0  0  0  0  0  0  0  0  0  0  0  0
    2.0785    2.5511    1.1985 H   0  0  0  0  0  0  0  0  0  0  0  0
    0.3749    2.4605    2.8754 H   0  0  0  0  0  0  0  0  0  0  0  0
    1.1379    1.0644    3.6354 H   0  0  0  0  0  0  0  0  0  0  0  0
   -0.5850   -0.0770    2.6223 H   0  0  0  0  0  0  0  0  0  0  0  0
    0.6585   -0.8311    0.2916 H   0  0  0  0  0  0  0  0  0  0  0  0
    1.3125   -1.2230    1.9099 H   0  0  0  0  0  0  0  0  0  0  0  0
   -1.3328    2.5520   -0.5727 H   0  0  0  0  0  0  0  0  0  0  0  0
    0.2922    1.8820   -0.5140 H   0  0  0  0  0  0  0  0  0  0  0  0
   -0.2567    3.0514    0.7307 H   0  0  0  0  0  0  0  0  0  0  0  0
   -3.2804    1.9113   -0.1144 H   0  0  0  0  0  0  0  0  0  0  0  0
   -2.7272    0.7937   -1.3636 H   0  0  0  0  0  0  0  0  0  0  0  0
   -4.4643   -2.2615   -2.3125 H   0  0  0  0  0  0  0  0  0  0  0  0
   -3.1009   -1.6290   -1.6115 H   0  0  0  0  0  0  0  0  0  0  0  0
   -8.7670   -1.6102   -0.5065 H   0  0  0  0  0  0  0  0  0  0  0  0
   -8.6547   -1.3539    1.2517 H   0  0  0  0  0  0  0  0  0  0  0  0
   -8.0055   -2.8434    0.5231 H   0  0  0  0  0  0  0  0  0  0  0  0
   -7.0805    0.1678    1.7652 H   0  0  0  0  0  0  0  0  0  0  0  0
  1  2  1  0
  2  3  1  0
  3  4  2  0
  4  5  1  0
  5  6  1  0
  6  7  1  0
  5  8  2  0
  8  9  1  0
  9 10  2  0
  9 11  1  0
 11 12  1  0
 12 13  1  0
 13 14  1  0
 14 15  1  0
 14 16  1  0
 16 17  1  0
 16 18  1  0
 18 19  2  0
 18 20  1  0
 20 21  1  0
 21 22  2  0
 22 23  1  0
 22 24  1  0
 24 25  2  0
 25 26  1  0
 25 27  1  0
 27 28  1  0
 28 29  2  0
 10  3  1  0
 15 11  1  0
 28 21  1  0
  1 30  1  0
  1 31  1  0
  1 32  1  0
  4 33  1  0
  7 34  1  0
  7 35  1  0
  7 36  1  0
  8 37  1  0
 10 38  1  0
 12 39  1  0
 12 40  1  0
 13 41  1  0
 13 42  1  0
 14 43  1  0
 15 44  1  0
 15 45  1  0
 17 46  1  0
 17 47  1  0
 17 48  1  0
 20 49  1  0
 20 50  1  0
 23 51  1  0
 23 52  1  0
 26 53  1  0
 26 54  1  0
 26 55  1  0
 27 56  1  0
M  END
>  <Unnamed: 0>  (144) 
871

>  <ID>  (144) 
TRAIN_0871

>  <Canonical_Smiles>  (144) 
COc1cc(OC)cc(c1)N2CCC(C2)N(C)C(=O)CC3=C(N)N=C(C)NC3=O

>  <Inhibition>  (144) 
42.545769

>  <TDC_conf_true_inhibitor>  (144) 
1

>  <TDC_conf_non_inhibitor>  (144) 
0

>  <split>  (144) 
1

$$$$
144
     RDKit          3D

 42 44  0  0  0  0  0  0  0  0999 V2000
   -1.5844   -3.5226    0.8020 C   0  0  0  0  0  0  0  0  0  0  0  0
   -2.4251   -2.2400    0.8317 C   0  0  0  0  0  0  0  0  0  0  0  0
   -2.2347   -1.5028    2.1806 C   0  0  0  0  0  0  0  0  0  0  0  0
   -1.0951   -0.6067    2.1869 N   0  0  0  0  0  0  0  0  0  0  0  0
   -1.2442    0.7400    1.9122 C   0  0  0  0  0  0  0  0  0  0  0  0
   -2.3231    1.3195    1.9885 O   0  0  0  0  0  0  0  0  0  0  0  0
   -0.0246    1.3752    1.4854 C   0  0  0  0  0  0  0  0  0  0  0  0
    0.5210    2.5836    1.8763 C   0  0  0  0  0  0  0  0  0  0  0  0
    1.7235    2.7672    1.1562 C   0  0  0  0  0  0  0  0  0  0  0  0
    1.8787    1.6909    0.2930 C   0  0  0  0  0  0  0  0  0  0  0  0
    0.7818    0.8743    0.4792 N   0  0  0  0  0  0  0  0  0  0  0  0
    2.9325    1.3907   -0.6820 C   0  0  0  0  0  0  0  0  0  0  0  0
    2.6605    0.6688   -1.8513 C   0  0  0  0  0  0  0  0  0  0  0  0
    3.6785    0.3780   -2.7657 C   0  0  0  0  0  0  0  0  0  0  0  0
    4.9813    0.8084   -2.5230 C   0  0  0  0  0  0  0  0  0  0  0  0
    5.2657    1.5339   -1.3690 C   0  0  0  0  0  0  0  0  0  0  0  0
    4.2481    1.8220   -0.4550 C   0  0  0  0  0  0  0  0  0  0  0  0
   -2.0786   -1.3678   -0.3427 C   0  0  0  0  0  0  0  0  0  0  0  0
   -0.9105   -1.3256   -0.9562 N   0  0  0  0  0  0  0  0  0  0  0  0
   -0.9559   -0.3431   -1.9125 N   0  0  0  0  0  0  0  0  0  0  0  0
   -2.1494    0.2010   -1.8636 C   0  0  0  0  0  0  0  0  0  0  0  0
   -2.8965   -0.4125   -0.8998 N   0  0  0  0  0  0  0  0  0  0  0  0
   -4.2388   -0.0523   -0.5239 C   0  0  0  0  0  0  0  0  0  0  0  0
   -1.8578   -4.1934    1.6214 H   0  0  0  0  0  0  0  0  0  0  0  0
   -0.5123   -3.3064    0.8891 H   0  0  0  0  0  0  0  0  0  0  0  0
   -1.7371   -4.0668   -0.1368 H   0  0  0  0  0  0  0  0  0  0  0  0
   -3.4741   -2.5525    0.7580 H   0  0  0  0  0  0  0  0  0  0  0  0
   -3.1389   -0.9249    2.4095 H   0  0  0  0  0  0  0  0  0  0  0  0
   -2.0974   -2.2169    3.0023 H   0  0  0  0  0  0  0  0  0  0  0  0
   -0.1699   -1.0024    2.1210 H   0  0  0  0  0  0  0  0  0  0  0  0
    0.0988    3.2547    2.6165 H   0  0  0  0  0  0  0  0  0  0  0  0
    2.3972    3.6140    1.2422 H   0  0  0  0  0  0  0  0  0  0  0  0
    0.5518    0.0549   -0.0792 H   0  0  0  0  0  0  0  0  0  0  0  0
    1.6506    0.3312   -2.0791 H   0  0  0  0  0  0  0  0  0  0  0  0
    3.4492   -0.1885   -3.6660 H   0  0  0  0  0  0  0  0  0  0  0  0
    5.7716    0.5798   -3.2318 H   0  0  0  0  0  0  0  0  0  0  0  0
    6.2791    1.8713   -1.1770 H   0  0  0  0  0  0  0  0  0  0  0  0
    4.4982    2.3753    0.4457 H   0  0  0  0  0  0  0  0  0  0  0  0
   -2.5044    1.0185   -2.4746 H   0  0  0  0  0  0  0  0  0  0  0  0
   -4.9306   -0.7379   -1.0241 H   0  0  0  0  0  0  0  0  0  0  0  0
   -4.3469   -0.1207    0.5552 H   0  0  0  0  0  0  0  0  0  0  0  0
   -4.4375    0.9786   -0.8399 H   0  0  0  0  0  0  0  0  0  0  0  0
  1  2  1  0
  2  3  1  0
  3  4  1  0
  4  5  1  0
  5  6  2  0
  5  7  1  0
  7  8  2  0
  8  9  1  0
  9 10  2  0
 10 11  1  0
 10 12  1  0
 12 13  2  0
 13 14  1  0
 14 15  2  0
 15 16  1  0
 16 17  2  0
  2 18  1  0
 18 19  2  0
 19 20  1  0
 20 21  2  0
 21 22  1  0
 22 23  1  0
 11  7  1  0
 17 12  1  0
 22 18  1  0
  1 24  1  0
  1 25  1  0
  1 26  1  0
  2 27  1  0
  3 28  1  0
  3 29  1  0
  4 30  1  0
  8 31  1  0
  9 32  1  0
 11 33  1  0
 13 34  1  0
 14 35  1  0
 15 36  1  0
 16 37  1  0
 17 38  1  0
 21 39  1  0
 23 40  1  0
 23 41  1  0
 23 42  1  0
M  END
>  <Unnamed: 0>  (145) 
872

>  <ID>  (145) 
TRAIN_0872

>  <Canonical_Smiles>  (145) 
CC(CNC(=O)c1ccc([nH]1)c2ccccc2)c3nncn3C

>  <Inhibition>  (145) 
19.443733

>  <TDC_conf_true_inhibitor>  (145) 
0

>  <TDC_conf_non_inhibitor>  (145) 
0

>  <split>  (145) 
1

$$$$
145
     RDKit          3D

 41 43  0  0  0  0  0  0  0  0999 V2000
    2.0401    1.1951   -3.4195 O   0  0  0  0  0  0  0  0  0  0  0  0
    2.6143    1.5518   -2.3929 C   0  0  0  0  0  0  0  0  0  0  0  0
    4.0684    1.1606   -2.1000 C   0  0  0  0  0  0  0  0  0  0  0  0
    4.5341    1.4846   -0.7989 O   0  0  0  0  0  0  0  0  0  0  0  0
    4.1585    0.4925    0.0717 C   0  0  0  0  0  0  0  0  0  0  0  0
    3.1455    0.7991    0.8957 N   0  0  0  0  0  0  0  0  0  0  0  0
    2.8269   -0.1577    1.7891 C   0  0  0  0  0  0  0  0  0  0  0  0
    3.4686   -1.3728    1.8651 C   0  0  0  0  0  0  0  0  0  0  0  0
    4.4885   -1.5675    0.9613 C   0  0  0  0  0  0  0  0  0  0  0  0
    4.8600   -0.6486    0.0515 N   0  0  0  0  0  0  0  0  0  0  0  0
    2.0193    2.3610   -1.4507 N   0  0  0  0  0  0  0  0  0  0  0  0
    0.6269    2.7590   -1.5589 C   0  0  0  0  0  0  0  0  0  0  0  0
   -0.3557    1.6200   -1.2395 C   0  0  0  0  0  0  0  0  0  0  0  0
   -0.1455    1.1470    0.1361 N   0  0  0  0  0  0  0  0  0  0  0  0
   -0.9278    0.0451    0.4912 C   0  0  0  0  0  0  0  0  0  0  0  0
   -2.3048    0.0805    0.4344 C   0  0  0  0  0  0  0  0  0  0  0  0
   -2.9718   -1.0656    0.8248 C   0  0  0  0  0  0  0  0  0  0  0  0
   -2.3305   -2.1783    1.2526 N   0  0  0  0  0  0  0  0  0  0  0  0
   -0.9972   -2.0943    1.2830 C   0  0  0  0  0  0  0  0  0  0  0  0
   -0.2603   -1.0307    0.9339 N   0  0  0  0  0  0  0  0  0  0  0  0
   -4.3969   -1.0832    0.7777 N   0  0  0  0  0  0  0  0  0  0  0  0
   -5.2117   -2.1407    1.1285 C   0  0  0  0  0  0  0  0  0  0  0  0
   -6.5090   -1.7349    0.9309 C   0  0  0  0  0  0  0  0  0  0  0  0
   -6.3961   -0.4184    0.4583 C   0  0  0  0  0  0  0  0  0  0  0  0
   -5.1287   -0.0131    0.3584 N   0  0  0  0  0  0  0  0  0  0  0  0
    4.6868    1.7271   -2.8059 H   0  0  0  0  0  0  0  0  0  0  0  0
    4.2018    0.0976   -2.3400 H   0  0  0  0  0  0  0  0  0  0  0  0
    2.0033    0.0833    2.4578 H   0  0  0  0  0  0  0  0  0  0  0  0
    3.1866   -2.1261    2.5873 H   0  0  0  0  0  0  0  0  0  0  0  0
    5.0555   -2.4944    0.9445 H   0  0  0  0  0  0  0  0  0  0  0  0
    2.4581    2.4103   -0.5331 H   0  0  0  0  0  0  0  0  0  0  0  0
    0.4811    3.5944   -0.8661 H   0  0  0  0  0  0  0  0  0  0  0  0
    0.4485    3.1214   -2.5774 H   0  0  0  0  0  0  0  0  0  0  0  0
   -0.2124    0.7926   -1.9448 H   0  0  0  0  0  0  0  0  0  0  0  0
   -1.3735    2.0052   -1.3650 H   0  0  0  0  0  0  0  0  0  0  0  0
    0.8242    0.8457    0.2580 H   0  0  0  0  0  0  0  0  0  0  0  0
   -2.8312    0.9705    0.1150 H   0  0  0  0  0  0  0  0  0  0  0  0
   -0.4585   -2.9713    1.6242 H   0  0  0  0  0  0  0  0  0  0  0  0
   -4.7894   -3.0716    1.4806 H   0  0  0  0  0  0  0  0  0  0  0  0
   -7.4082   -2.3099    1.1019 H   0  0  0  0  0  0  0  0  0  0  0  0
   -7.1881    0.2653    0.1793 H   0  0  0  0  0  0  0  0  0  0  0  0
  1  2  2  0
  2  3  1  0
  3  4  1  0
  4  5  1  0
  5  6  2  0
  6  7  1  0
  7  8  2  0
  8  9  1  0
  9 10  2  0
  2 11  1  0
 11 12  1  0
 12 13  1  0
 13 14  1  0
 14 15  1  0
 15 16  2  0
 16 17  1  0
 17 18  2  0
 18 19  1  0
 19 20  2  0
 17 21  1  0
 21 22  1  0
 22 23  2  0
 23 24  1  0
 24 25  2  0
 10  5  1  0
 20 15  1  0
 25 21  1  0
  3 26  1  0
  3 27  1  0
  7 28  1  0
  8 29  1  0
  9 30  1  0
 11 31  1  0
 12 32  1  0
 12 33  1  0
 13 34  1  0
 13 35  1  0
 14 36  1  0
 16 37  1  0
 19 38  1  0
 22 39  1  0
 23 40  1  0
 24 41  1  0
M  END
>  <Unnamed: 0>  (146) 
878

>  <ID>  (146) 
TRAIN_0878

>  <Canonical_Smiles>  (146) 
O=C(COc1ncccn1)NCCNc2cc(ncn2)n3cccn3

>  <Inhibition>  (146) 
23.255665

>  <TDC_conf_true_inhibitor>  (146) 
0

>  <TDC_conf_non_inhibitor>  (146) 
1

>  <split>  (146) 
1

$$$$
146
     RDKit          3D

 37 38  0  0  0  0  0  0  0  0999 V2000
   -3.6783   -1.9671    0.0788 O   0  0  0  0  0  0  0  0  0  0  0  0
   -3.4548   -0.7722    0.2308 C   0  0  0  0  0  0  0  0  0  0  0  0
   -2.0370   -0.2211    0.3139 C   0  0  0  0  0  0  0  0  0  0  0  0
   -0.9757   -1.3160    0.2086 C   0  0  0  0  0  0  0  0  0  0  0  0
    0.4516   -0.8104    0.4409 C   0  0  0  0  0  0  0  0  0  0  0  0
    0.9296    0.1761   -0.6303 C   0  0  0  0  0  0  0  0  0  0  0  0
    2.3809    0.6226   -0.4210 C   0  0  0  0  0  0  0  0  0  0  0  0
    3.2953   -0.4486   -0.7693 N   0  0  0  0  0  0  0  0  0  0  0  0
    4.6344   -0.1559   -0.5469 C   0  0  0  0  0  0  0  0  0  0  0  0
    5.0996    1.0916   -0.7080 N   0  0  0  0  0  0  0  0  0  0  0  0
    6.4125    1.2872   -0.4846 C   0  0  0  0  0  0  0  0  0  0  0  0
    7.2724    0.2906   -0.0986 C   0  0  0  0  0  0  0  0  0  0  0  0
    6.6990   -0.9467    0.0500 C   0  0  0  0  0  0  0  0  0  0  0  0
    5.3923   -1.1918   -0.1623 N   0  0  0  0  0  0  0  0  0  0  0  0
   -4.3822    0.2377    0.3458 N   0  0  0  0  0  0  0  0  0  0  0  0
   -5.7367    0.0802    0.3116 C   0  0  0  0  0  0  0  0  0  0  0  0
   -6.5037    1.2091    0.4398 N   0  0  0  0  0  0  0  0  0  0  0  0
   -7.7312    0.7496    0.3692 C   0  0  0  0  0  0  0  0  0  0  0  0
   -7.6971   -0.5973    0.2063 N   0  0  0  0  0  0  0  0  0  0  0  0
   -6.4370   -1.0438    0.1682 N   0  0  0  0  0  0  0  0  0  0  0  0
   -1.9138    0.5047   -0.4976 H   0  0  0  0  0  0  0  0  0  0  0  0
   -1.9316    0.3061    1.2696 H   0  0  0  0  0  0  0  0  0  0  0  0
   -1.1858   -2.0951    0.9525 H   0  0  0  0  0  0  0  0  0  0  0  0
   -1.0405   -1.8018   -0.7729 H   0  0  0  0  0  0  0  0  0  0  0  0
    1.1152   -1.6824    0.4626 H   0  0  0  0  0  0  0  0  0  0  0  0
    0.5169   -0.3406    1.4299 H   0  0  0  0  0  0  0  0  0  0  0  0
    0.8147   -0.2705   -1.6256 H   0  0  0  0  0  0  0  0  0  0  0  0
    0.2978    1.0712   -0.6021 H   0  0  0  0  0  0  0  0  0  0  0  0
    2.5243    0.9424    0.6189 H   0  0  0  0  0  0  0  0  0  0  0  0
    2.5593    1.4895   -1.0696 H   0  0  0  0  0  0  0  0  0  0  0  0
    3.1402   -1.3390   -0.3098 H   0  0  0  0  0  0  0  0  0  0  0  0
    6.7599    2.3051   -0.6329 H   0  0  0  0  0  0  0  0  0  0  0  0
    8.3240    0.4668    0.0742 H   0  0  0  0  0  0  0  0  0  0  0  0
    7.2877   -1.8078    0.3517 H   0  0  0  0  0  0  0  0  0  0  0  0
   -4.0954    1.1961    0.4640 H   0  0  0  0  0  0  0  0  0  0  0  0
   -8.6458    1.3217    0.4274 H   0  0  0  0  0  0  0  0  0  0  0  0
   -8.4609   -1.2580    0.1166 H   0  0  0  0  0  0  0  0  0  0  0  0
  1  2  2  0
  2  3  1  0
  3  4  1  0
  4  5  1  0
  5  6  1  0
  6  7  1  0
  7  8  1  0
  8  9  1  0
  9 10  2  0
 10 11  1  0
 11 12  2  0
 12 13  1  0
 13 14  2  0
  2 15  1  0
 15 16  1  0
 16 17  1  0
 17 18  2  0
 18 19  1  0
 19 20  1  0
 14  9  1  0
 20 16  2  0
  3 21  1  0
  3 22  1  0
  4 23  1  0
  4 24  1  0
  5 25  1  0
  5 26  1  0
  6 27  1  0
  6 28  1  0
  7 29  1  0
  7 30  1  0
  8 31  1  0
 11 32  1  0
 12 33  1  0
 13 34  1  0
 15 35  1  0
 18 36  1  0
 19 37  1  0
M  END
>  <Unnamed: 0>  (147) 
879

>  <ID>  (147) 
TRAIN_0879

>  <Canonical_Smiles>  (147) 
O=C(CCCCCNc1ncccn1)Nc2nc[nH]n2

>  <Inhibition>  (147) 
21.335296

>  <TDC_conf_true_inhibitor>  (147) 
0

>  <TDC_conf_non_inhibitor>  (147) 
1

>  <split>  (147) 
1

$$$$
147
     RDKit          3D

 46 48  0  0  0  0  0  0  0  0999 V2000
   -2.0082    2.8237   -2.7791 C   0  0  0  0  0  0  0  0  0  0  0  0
   -2.6453    1.6440   -2.3104 O   0  0  0  0  0  0  0  0  0  0  0  0
   -2.1701    1.0808   -1.1539 C   0  0  0  0  0  0  0  0  0  0  0  0
   -1.0559    1.5488   -0.4489 C   0  0  0  0  0  0  0  0  0  0  0  0
   -0.6521    0.9435    0.7530 C   0  0  0  0  0  0  0  0  0  0  0  0
    0.5450    1.4689    1.5116 C   0  0  0  0  0  0  0  0  0  0  0  0
    1.7722    1.2453    0.7673 N   0  0  0  0  0  0  0  0  0  0  0  0
    2.4564    0.0611    1.0145 C   0  0  0  0  0  0  0  0  0  0  0  0
    1.8875   -1.0016    1.6526 N   0  0  0  0  0  0  0  0  0  0  0  0
    2.6190   -2.1458    1.8580 C   0  0  0  0  0  0  0  0  0  0  0  0
    3.9046   -2.4413    1.5353 N   0  0  0  0  0  0  0  0  0  0  0  0
    4.4839   -1.3973    0.9016 C   0  0  0  0  0  0  0  0  0  0  0  0
    5.7346   -1.3322    0.4365 N   0  0  0  0  0  0  0  0  0  0  0  0
    5.8077   -0.1034   -0.1169 N   0  0  0  0  0  0  0  0  0  0  0  0
    7.0394    0.3081   -0.7480 C   0  0  0  0  0  0  0  0  0  0  0  0
    4.6582    0.6330   -0.0100 C   0  0  0  0  0  0  0  0  0  0  0  0
    3.7825   -0.1896    0.6519 C   0  0  0  0  0  0  0  0  0  0  0  0
   -1.3779   -0.1502    1.2416 C   0  0  0  0  0  0  0  0  0  0  0  0
   -2.4931   -0.6489    0.5500 C   0  0  0  0  0  0  0  0  0  0  0  0
   -3.2616   -1.8160    1.1263 C   0  0  0  0  0  0  0  0  0  0  0  0
   -4.3135   -1.3840    2.1106 C   0  0  0  0  0  0  0  0  0  0  0  0
   -5.6285   -1.5724    1.9382 C   0  0  0  0  0  0  0  0  0  0  0  0
   -2.8725   -0.0340   -0.6565 C   0  0  0  0  0  0  0  0  0  0  0  0
   -3.9895   -0.5311   -1.2887 O   0  0  0  0  0  0  0  0  0  0  0  0
   -3.6855   -1.0504   -2.5827 C   0  0  0  0  0  0  0  0  0  0  0  0
   -2.5390    3.1557   -3.6767 H   0  0  0  0  0  0  0  0  0  0  0  0
   -0.9699    2.6241   -3.0632 H   0  0  0  0  0  0  0  0  0  0  0  0
   -2.0703    3.6293   -2.0401 H   0  0  0  0  0  0  0  0  0  0  0  0
   -0.4733    2.3894   -0.8109 H   0  0  0  0  0  0  0  0  0  0  0  0
    0.5932    1.0640    2.5307 H   0  0  0  0  0  0  0  0  0  0  0  0
    0.4072    2.5505    1.6393 H   0  0  0  0  0  0  0  0  0  0  0  0
    2.3924    2.0426    0.7163 H   0  0  0  0  0  0  0  0  0  0  0  0
    2.0791   -2.9431    2.3644 H   0  0  0  0  0  0  0  0  0  0  0  0
    6.9264    1.3222   -1.1389 H   0  0  0  0  0  0  0  0  0  0  0  0
    7.2559   -0.3852   -1.5646 H   0  0  0  0  0  0  0  0  0  0  0  0
    7.8349    0.2828    0.0009 H   0  0  0  0  0  0  0  0  0  0  0  0
    4.5732    1.6312   -0.4138 H   0  0  0  0  0  0  0  0  0  0  0  0
   -1.0641   -0.6276    2.1686 H   0  0  0  0  0  0  0  0  0  0  0  0
   -2.5618   -2.4896    1.6382 H   0  0  0  0  0  0  0  0  0  0  0  0
   -3.6951   -2.4210    0.3205 H   0  0  0  0  0  0  0  0  0  0  0  0
   -3.9662   -0.8923    3.0161 H   0  0  0  0  0  0  0  0  0  0  0  0
   -6.3418   -1.2353    2.6833 H   0  0  0  0  0  0  0  0  0  0  0  0
   -6.0204   -2.0476    1.0440 H   0  0  0  0  0  0  0  0  0  0  0  0
   -2.6610   -1.4337   -2.6587 H   0  0  0  0  0  0  0  0  0  0  0  0
   -4.3683   -1.8842   -2.7736 H   0  0  0  0  0  0  0  0  0  0  0  0
   -3.8682   -0.2911   -3.3485 H   0  0  0  0  0  0  0  0  0  0  0  0
  1  2  1  0
  2  3  1  0
  3  4  2  0
  4  5  1  0
  5  6  1  0
  6  7  1  0
  7  8  1  0
  8  9  2  0
  9 10  1  0
 10 11  2  0
 11 12  1  0
 12 13  2  0
 13 14  1  0
 14 15  1  0
 14 16  1  0
 16 17  2  0
  5 18  2  0
 18 19  1  0
 19 20  1  0
 20 21  1  0
 21 22  2  0
 19 23  2  0
 23 24  1  0
 24 25  1  0
 23  3  1  0
 17  8  1  0
 17 12  1  0
  1 26  1  0
  1 27  1  0
  1 28  1  0
  4 29  1  0
  6 30  1  0
  6 31  1  0
  7 32  1  0
 10 33  1  0
 15 34  1  0
 15 35  1  0
 15 36  1  0
 16 37  1  0
 18 38  1  0
 20 39  1  0
 20 40  1  0
 21 41  1  0
 22 42  1  0
 22 43  1  0
 25 44  1  0
 25 45  1  0
 25 46  1  0
M  END
>  <Unnamed: 0>  (148) 
883

>  <ID>  (148) 
TRAIN_0883

>  <Canonical_Smiles>  (148) 
COc1cc(CNc2ncnc3nn(C)cc23)cc(CC=C)c1OC

>  <Inhibition>  (148) 
54.864934

>  <TDC_conf_true_inhibitor>  (148) 
1

>  <TDC_conf_non_inhibitor>  (148) 
0

>  <split>  (148) 
1

$$$$
148
     RDKit          3D

 52 54  0  0  0  0  0  0  0  0999 V2000
   -3.1766    3.8036    1.2469 C   0  0  0  0  0  0  0  0  0  0  0  0
   -3.3948    2.3772    0.8952 C   0  0  0  0  0  0  0  0  0  0  0  0
   -4.5748    1.8031    1.1471 N   0  0  0  0  0  0  0  0  0  0  0  0
   -4.4218    0.5530    0.6927 N   0  0  0  0  0  0  0  0  0  0  0  0
   -3.1837    0.2868    0.1741 C   0  0  0  0  0  0  0  0  0  0  0  0
   -2.4925    1.4840    0.2411 C   0  0  0  0  0  0  0  0  0  0  0  0
   -1.1717    1.8574   -0.3172 C   0  0  0  0  0  0  0  0  0  0  0  0
   -2.7607   -1.1117   -0.4211 C   0  0  0  0  0  0  0  0  0  0  0  0
   -3.6741   -1.8379   -1.1789 C   0  0  0  0  0  0  0  0  0  0  0  0
   -5.0909   -1.5261   -1.5524 C   0  0  0  0  0  0  0  0  0  0  0  0
   -2.9730   -3.2445   -1.8496 S   0  0  0  0  0  0  0  0  0  0  0  0
   -1.4677   -2.9454   -1.1119 C   0  0  0  0  0  0  0  0  0  0  0  0
   -0.3575   -3.9241   -1.3399 C   0  0  0  0  0  0  0  0  0  0  0  0
   -1.5047   -1.8143   -0.3037 C   0  0  0  0  0  0  0  0  0  0  0  0
   -0.1880   -1.4693    0.7923 S   0  0  0  0  0  6  0  0  0  0  0  0
    0.1744   -2.7569    1.3432 O   0  0  0  0  0  0  0  0  0  0  0  0
   -0.6080   -0.3864    1.6464 O   0  0  0  0  0  0  0  0  0  0  0  0
    1.1059   -0.9117   -0.1457 N   0  0  0  0  0  0  0  0  0  0  0  0
    2.4513   -0.9551    0.4874 C   0  0  0  0  0  0  0  0  0  0  0  0
    2.5712    0.1282    1.5698 C   0  0  0  0  0  0  0  0  0  0  0  0
    3.9949    0.6098    1.8420 C   0  0  0  0  0  0  0  0  0  0  0  0
    4.6461    1.4620    0.7409 C   0  0  0  0  0  0  0  0  0  0  0  0
    3.8170    1.6794   -0.5221 C   0  0  0  0  0  0  0  0  0  0  0  0
    3.6124    0.4314   -1.3810 C   0  0  0  0  0  0  0  0  0  0  0  0
    3.5003   -0.8958   -0.6319 C   0  0  0  0  0  0  0  0  0  0  0  0
   -3.8787    4.1364    2.0186 H   0  0  0  0  0  0  0  0  0  0  0  0
   -3.3126    4.4362    0.3642 H   0  0  0  0  0  0  0  0  0  0  0  0
   -2.1626    3.9572    1.6299 H   0  0  0  0  0  0  0  0  0  0  0  0
   -5.1906   -0.0935    0.8185 H   0  0  0  0  0  0  0  0  0  0  0  0
   -1.2220    2.8440   -0.7903 H   0  0  0  0  0  0  0  0  0  0  0  0
   -0.8533    1.1548   -1.0917 H   0  0  0  0  0  0  0  0  0  0  0  0
   -0.4104    1.9049    0.4648 H   0  0  0  0  0  0  0  0  0  0  0  0
   -5.7589   -1.7349   -0.7100 H   0  0  0  0  0  0  0  0  0  0  0  0
   -5.4360   -2.1215   -2.4050 H   0  0  0  0  0  0  0  0  0  0  0  0
   -5.1973   -0.4745   -1.8376 H   0  0  0  0  0  0  0  0  0  0  0  0
   -0.3415   -4.6753   -0.5440 H   0  0  0  0  0  0  0  0  0  0  0  0
    0.6139   -3.4216   -1.3667 H   0  0  0  0  0  0  0  0  0  0  0  0
   -0.4687   -4.4483   -2.2952 H   0  0  0  0  0  0  0  0  0  0  0  0
    0.8888    0.0050   -0.5306 H   0  0  0  0  0  0  0  0  0  0  0  0
    2.5809   -1.9366    0.9616 H   0  0  0  0  0  0  0  0  0  0  0  0
    1.9267    0.9871    1.3515 H   0  0  0  0  0  0  0  0  0  0  0  0
    2.1716   -0.2883    2.5039 H   0  0  0  0  0  0  0  0  0  0  0  0
    3.9832    1.2048    2.7656 H   0  0  0  0  0  0  0  0  0  0  0  0
    4.6371   -0.2525    2.0625 H   0  0  0  0  0  0  0  0  0  0  0  0
    5.6181    1.0249    0.4734 H   0  0  0  0  0  0  0  0  0  0  0  0
    4.8775    2.4481    1.1682 H   0  0  0  0  0  0  0  0  0  0  0  0
    2.8451    2.1148   -0.2630 H   0  0  0  0  0  0  0  0  0  0  0  0
    4.3098    2.4406   -1.1398 H   0  0  0  0  0  0  0  0  0  0  0  0
    4.4567    0.3476   -2.0779 H   0  0  0  0  0  0  0  0  0  0  0  0
    2.7251    0.5820   -2.0086 H   0  0  0  0  0  0  0  0  0  0  0  0
    3.2826   -1.6822   -1.3681 H   0  0  0  0  0  0  0  0  0  0  0  0
    4.4828   -1.1558   -0.2178 H   0  0  0  0  0  0  0  0  0  0  0  0
  1  2  1  0
  2  3  2  0
  3  4  1  0
  4  5  1  0
  5  6  2  0
  6  7  1  0
  5  8  1  0
  8  9  2  0
  9 10  1  0
  9 11  1  0
 11 12  1  0
 12 13  1  0
 12 14  2  0
 14 15  1  0
 15 16  2  0
 15 17  2  0
 15 18  1  0
 18 19  1  0
 19 20  1  0
 20 21  1  0
 21 22  1  0
 22 23  1  0
 23 24  1  0
 24 25  1  0
  6  2  1  0
 14  8  1  0
 25 19  1  0
  1 26  1  0
  1 27  1  0
  1 28  1  0
  4 29  1  0
  7 30  1  0
  7 31  1  0
  7 32  1  0
 10 33  1  0
 10 34  1  0
 10 35  1  0
 13 36  1  0
 13 37  1  0
 13 38  1  0
 18 39  1  0
 19 40  1  0
 20 41  1  0
 20 42  1  0
 21 43  1  0
 21 44  1  0
 22 45  1  0
 22 46  1  0
 23 47  1  0
 23 48  1  0
 24 49  1  0
 24 50  1  0
 25 51  1  0
 25 52  1  0
M  END
>  <Unnamed: 0>  (149) 
886

>  <ID>  (149) 
TRAIN_0886

>  <Canonical_Smiles>  (149) 
Cc1n[nH]c(c1C)c2c(C)sc(C)c2S(=O)(=O)NC3CCCCCC3

>  <Inhibition>  (149) 
79.458456

>  <TDC_conf_true_inhibitor>  (149) 
1

>  <TDC_conf_non_inhibitor>  (149) 
0

>  <split>  (149) 
1

$$$$
149
     RDKit          3D

 45 48  0  0  0  0  0  0  0  0999 V2000
    3.2271    2.2772    1.1043 C   0  0  0  0  0  0  0  0  0  0  0  0
    2.0293    1.5075    1.6614 C   0  0  0  0  0  0  0  0  0  0  0  0
    0.6998    2.2079    1.3025 C   0  0  0  0  0  0  0  0  0  0  0  0
   -0.4299    1.2670    1.1778 N   0  0  0  0  0  0  0  0  0  0  0  0
   -1.7138    1.9819    1.1770 C   0  0  0  0  0  0  0  0  0  0  0  0
   -2.8210    1.1455    0.6130 C   0  0  0  0  0  0  0  0  0  0  0  0
   -3.9606    0.6779    1.2358 C   0  0  0  0  0  0  0  0  0  0  0  0
   -4.8115   -0.0726    0.4500 N   0  0  0  0  0  0  0  0  0  0  0  0
   -4.3170   -0.1752   -0.7647 C   0  0  0  0  0  0  0  0  0  0  0  0
   -4.9643   -0.9244   -1.8755 C   0  0  0  0  0  0  0  0  0  0  0  0
   -2.8236    0.6349   -1.0282 S   0  0  0  0  0  0  0  0  0  0  0  0
   -0.3521    0.2214    2.2028 C   0  0  0  0  0  0  0  0  0  0  0  0
    0.8606   -0.6894    1.9546 C   0  0  0  0  0  0  0  0  0  0  0  0
    2.0177    0.0272    1.2276 C   0  0  0  0  0  0  0  0  0  0  0  0
    1.8268   -0.0500   -0.2287 N   0  0  0  0  0  0  0  0  0  0  0  0
    2.1244   -1.2584   -0.8461 C   0  0  0  0  0  0  0  0  0  0  0  0
    3.0078   -2.1320   -0.3184 N   0  0  0  0  0  0  0  0  0  0  0  0
    3.2524   -3.2882   -0.9712 C   0  0  0  0  0  0  0  0  0  0  0  0
    2.7184   -3.7215   -2.1196 N   0  0  0  0  0  0  0  0  0  0  0  0
    1.8465   -2.8408   -2.6391 C   0  0  0  0  0  0  0  0  0  0  0  0
    1.1486   -3.0075   -3.8069 N   0  0  0  0  0  0  0  0  0  0  0  0
    0.4314   -1.9131   -3.9322 C   0  0  0  0  0  0  0  0  0  0  0  0
    0.6362   -1.0513   -2.8904 N   0  0  0  0  0  0  0  0  0  0  0  0
    1.5395   -1.6321   -2.0434 C   0  0  0  0  0  0  0  0  0  0  0  0
    4.1663    1.7968    1.3977 H   0  0  0  0  0  0  0  0  0  0  0  0
    3.2389    3.3016    1.4917 H   0  0  0  0  0  0  0  0  0  0  0  0
    3.2020    2.3324    0.0111 H   0  0  0  0  0  0  0  0  0  0  0  0
    2.1274    1.5202    2.7569 H   0  0  0  0  0  0  0  0  0  0  0  0
    0.8011    2.7423    0.3496 H   0  0  0  0  0  0  0  0  0  0  0  0
    0.4954    2.9654    2.0713 H   0  0  0  0  0  0  0  0  0  0  0  0
   -1.6388    2.8834    0.5534 H   0  0  0  0  0  0  0  0  0  0  0  0
   -1.9681    2.3259    2.1880 H   0  0  0  0  0  0  0  0  0  0  0  0
   -4.2228    0.8532    2.2723 H   0  0  0  0  0  0  0  0  0  0  0  0
   -5.8983   -1.3826   -1.5346 H   0  0  0  0  0  0  0  0  0  0  0  0
   -4.3103   -1.7234   -2.2391 H   0  0  0  0  0  0  0  0  0  0  0  0
   -5.2014   -0.2560   -2.7093 H   0  0  0  0  0  0  0  0  0  0  0  0
   -0.2905    0.6685    3.2040 H   0  0  0  0  0  0  0  0  0  0  0  0
   -1.2453   -0.4140    2.2034 H   0  0  0  0  0  0  0  0  0  0  0  0
    0.5425   -1.5790    1.3976 H   0  0  0  0  0  0  0  0  0  0  0  0
    1.2185   -1.0464    2.9286 H   0  0  0  0  0  0  0  0  0  0  0  0
    2.9727   -0.4305    1.5147 H   0  0  0  0  0  0  0  0  0  0  0  0
    0.9032    0.2961   -0.4812 H   0  0  0  0  0  0  0  0  0  0  0  0
    3.9734   -3.9510   -0.5026 H   0  0  0  0  0  0  0  0  0  0  0  0
   -0.2449   -1.6896   -4.7469 H   0  0  0  0  0  0  0  0  0  0  0  0
    0.2063   -0.1456   -2.7691 H   0  0  0  0  0  0  0  0  0  0  0  0
  1  2  1  0
  2  3  1  0
  3  4  1  0
  4  5  1  0
  5  6  1  0
  6  7  2  0
  7  8  1  0
  8  9  2  0
  9 10  1  0
  9 11  1  0
  4 12  1  0
 12 13  1  0
 13 14  1  0
 14 15  1  0
 15 16  1  0
 16 17  2  0
 17 18  1  0
 18 19  2  0
 19 20  1  0
 20 21  1  0
 21 22  2  0
 22 23  1  0
 23 24  1  0
 14  2  1  0
 11  6  1  0
 24 16  1  0
 24 20  2  0
  1 25  1  0
  1 26  1  0
  1 27  1  0
  2 28  1  0
  3 29  1  0
  3 30  1  0
  5 31  1  0
  5 32  1  0
  7 33  1  0
 10 34  1  0
 10 35  1  0
 10 36  1  0
 12 37  1  0
 12 38  1  0
 13 39  1  0
 13 40  1  0
 14 41  1  0
 15 42  1  0
 18 43  1  0
 22 44  1  0
 23 45  1  0
M  END
>  <Unnamed: 0>  (150) 
890

>  <ID>  (150) 
TRAIN_0890

>  <Canonical_Smiles>  (150) 
CC1CN(Cc2cnc(C)s2)CCC1Nc3ncnc4nc[nH]c34

>  <Inhibition>  (150) 
29.468058

>  <TDC_conf_true_inhibitor>  (150) 
1

>  <TDC_conf_non_inhibitor>  (150) 
0

>  <split>  (150) 
1

$$$$
150
     RDKit          3D

 47 50  0  0  0  0  0  0  0  0999 V2000
    4.2524   -1.4881   -2.4614 F   0  0  0  0  0  0  0  0  0  0  0  0
    5.2374   -0.8515   -1.7676 C   0  0  0  0  0  0  0  0  0  0  0  0
    6.4075   -1.3730   -2.2462 F   0  0  0  0  0  0  0  0  0  0  0  0
    5.2256    0.4462   -2.1869 F   0  0  0  0  0  0  0  0  0  0  0  0
    5.1036   -0.9867   -0.2557 C   0  0  0  0  0  0  0  0  0  0  0  0
    6.2248   -1.3181    0.5099 C   0  0  0  0  0  0  0  0  0  0  0  0
    6.0964   -1.4256    1.8924 C   0  0  0  0  0  0  0  0  0  0  0  0
    4.8582   -1.1971    2.4794 C   0  0  0  0  0  0  0  0  0  0  0  0
    3.7930   -0.8687    1.6594 C   0  0  0  0  0  0  0  0  0  0  0  0
    2.5877   -0.6337    2.2850 O   0  0  0  0  0  0  0  0  0  0  0  0
    1.5002   -0.3429    1.3999 C   0  0  0  0  0  0  0  0  0  0  0  0
    1.4756    1.1384    1.0115 C   0  0  0  0  0  0  0  0  0  0  0  0
    0.2866    1.4951    0.2626 N   0  0  0  0  0  0  0  0  0  0  0  0
    0.1529    1.3193   -1.0852 C   0  0  0  0  0  0  0  0  0  0  0  0
    1.0033    0.9152   -1.8637 O   0  0  0  0  0  0  0  0  0  0  0  0
   -1.2551    1.7286   -1.4667 C   0  0  0  0  0  0  0  0  0  0  0  0
   -2.0957    0.6839   -2.2020 C   0  0  0  0  0  0  0  0  0  0  0  0
   -3.0182    0.1221   -1.1123 C   0  0  0  0  0  0  0  0  0  0  0  0
   -4.3606   -0.4275   -1.5885 C   0  0  0  0  0  0  0  0  0  0  0  0
   -5.4802   -0.1934   -0.5628 C   0  0  0  0  0  0  0  0  0  0  0  0
   -4.9729   -0.1772    0.8802 C   0  0  0  0  0  0  0  0  0  0  0  0
   -3.8647    0.8619    1.1325 C   0  0  0  0  0  0  0  0  0  0  0  0
   -3.2008    1.3119   -0.1668 C   0  0  0  0  0  0  0  0  0  0  0  0
   -1.8793    1.9120   -0.1664 N   0  0  0  0  0  0  0  0  0  0  0  0
   -0.9340    1.7121    0.8427 C   0  0  0  0  0  0  0  0  0  0  0  0
   -1.1610    1.6586    2.0413 O   0  0  0  0  0  0  0  0  0  0  0  0
    3.8883   -0.7535    0.3201 N   0  0  0  0  0  0  0  0  0  0  0  0
    7.1895   -1.4926    0.0398 H   0  0  0  0  0  0  0  0  0  0  0  0
    6.9547   -1.6841    2.5072 H   0  0  0  0  0  0  0  0  0  0  0  0
    4.7248   -1.2709    3.5530 H   0  0  0  0  0  0  0  0  0  0  0  0
    0.5872   -0.5816    1.9583 H   0  0  0  0  0  0  0  0  0  0  0  0
    1.4844   -1.0063    0.5254 H   0  0  0  0  0  0  0  0  0  0  0  0
    1.5149    1.7524    1.9192 H   0  0  0  0  0  0  0  0  0  0  0  0
    2.3550    1.3966    0.4123 H   0  0  0  0  0  0  0  0  0  0  0  0
   -1.2286    2.6885   -1.9921 H   0  0  0  0  0  0  0  0  0  0  0  0
   -1.4970   -0.0997   -2.6762 H   0  0  0  0  0  0  0  0  0  0  0  0
   -2.6829    1.1787   -2.9847 H   0  0  0  0  0  0  0  0  0  0  0  0
   -2.4739   -0.6761   -0.5855 H   0  0  0  0  0  0  0  0  0  0  0  0
   -4.2532   -1.5030   -1.7770 H   0  0  0  0  0  0  0  0  0  0  0  0
   -4.6600    0.0194   -2.5437 H   0  0  0  0  0  0  0  0  0  0  0  0
   -6.2523   -0.9622   -0.6822 H   0  0  0  0  0  0  0  0  0  0  0  0
   -5.9662    0.7673   -0.7764 H   0  0  0  0  0  0  0  0  0  0  0  0
   -4.5831   -1.1749    1.1224 H   0  0  0  0  0  0  0  0  0  0  0  0
   -5.8060    0.0023    1.5697 H   0  0  0  0  0  0  0  0  0  0  0  0
   -4.2764    1.7373    1.6483 H   0  0  0  0  0  0  0  0  0  0  0  0
   -3.1512    0.4055    1.8250 H   0  0  0  0  0  0  0  0  0  0  0  0
   -3.8506    2.0577   -0.6477 H   0  0  0  0  0  0  0  0  0  0  0  0
  1  2  1  0
  2  3  1  0
  2  4  1  0
  2  5  1  0
  5  6  2  0
  6  7  1  0
  7  8  2  0
  8  9  1  0
  9 10  1  0
 10 11  1  0
 11 12  1  0
 12 13  1  0
 13 14  1  0
 14 15  2  0
 14 16  1  0
 16 17  1  0
 17 18  1  0
 18 19  1  0
 19 20  1  0
 20 21  1  0
 21 22  1  0
 22 23  1  0
 23 24  1  0
 24 25  1  0
 25 26  2  0
  9 27  2  0
 27  5  1  0
 25 13  1  0
 24 16  1  0
 23 18  1  0
  6 28  1  0
  7 29  1  0
  8 30  1  0
 11 31  1  0
 11 32  1  0
 12 33  1  0
 12 34  1  0
 16 35  1  0
 17 36  1  0
 17 37  1  0
 18 38  1  0
 19 39  1  0
 19 40  1  0
 20 41  1  0
 20 42  1  0
 21 43  1  0
 21 44  1  0
 22 45  1  0
 22 46  1  0
 23 47  1  0
M  END
>  <Unnamed: 0>  (151) 
891

>  <ID>  (151) 
TRAIN_0891

>  <Canonical_Smiles>  (151) 
FC(F)(F)c1cccc(OCCN2C(=O)C3CC4CCCCC4N3C2=O)n1

>  <Inhibition>  (151) 
0.5

>  <TDC_conf_true_inhibitor>  (151) 
0

>  <TDC_conf_non_inhibitor>  (151) 
1

>  <split>  (151) 
1

$$$$
151
     RDKit          3D

 42 44  0  0  0  0  0  0  0  0999 V2000
   -1.9757   -1.2666    2.7041 C   0  0  0  0  0  0  0  0  0  0  0  0
   -2.7644   -0.5721    1.6561 C   0  0  0  0  0  0  0  0  0  0  0  0
   -4.0888   -0.7316    1.6113 N   0  0  0  0  0  0  0  0  0  0  0  0
   -4.4737    0.0421    0.5833 N   0  0  0  0  0  0  0  0  0  0  0  0
   -5.8838    0.1380    0.2799 C   0  0  0  0  0  0  0  0  0  0  0  0
   -3.4305    0.6423   -0.0824 C   0  0  0  0  0  0  0  0  0  0  0  0
   -3.6455    1.4427   -1.3174 C   0  0  0  0  0  0  0  0  0  0  0  0
   -2.2963    0.3047    0.6336 C   0  0  0  0  0  0  0  0  0  0  0  0
   -0.9668    0.6493    0.4497 N   0  0  0  0  0  0  0  0  0  0  0  0
   -0.4447    1.6588   -0.3390 C   0  0  0  0  0  0  0  0  0  0  0  0
   -1.0820    2.5126   -0.9440 O   0  0  0  0  0  0  0  0  0  0  0  0
    1.0357    1.6430   -0.3436 C   0  0  0  0  0  0  0  0  0  0  0  0
    1.7460    2.7690   -0.1517 N   0  0  0  0  0  0  0  0  0  0  0  0
    3.0245    2.3813   -0.2080 N   0  0  0  0  0  0  0  0  0  0  0  0
    3.1831    1.0398   -0.3980 C   0  0  0  0  0  0  0  0  0  0  0  0
    4.5232    0.3935   -0.4723 C   0  0  0  0  0  0  0  0  0  0  0  0
    4.4866   -1.0455    0.0427 C   0  0  0  0  0  0  0  0  0  0  0  0
    3.8569   -2.0586   -0.9206 C   0  0  0  0  0  0  0  0  0  0  0  0
    2.5841   -1.6311   -1.6607 C   0  0  0  0  0  0  0  0  0  0  0  0
    1.5478   -0.9061   -0.7994 C   0  0  0  0  0  0  0  0  0  0  0  0
    1.9088    0.5178   -0.5185 C   0  0  0  0  0  0  0  0  0  0  0  0
   -1.4578   -0.5381    3.3361 H   0  0  0  0  0  0  0  0  0  0  0  0
   -2.6120   -1.8815    3.3492 H   0  0  0  0  0  0  0  0  0  0  0  0
   -1.2273   -1.9213    2.2460 H   0  0  0  0  0  0  0  0  0  0  0  0
   -6.1398    1.1892    0.1265 H   0  0  0  0  0  0  0  0  0  0  0  0
   -6.0801   -0.4479   -0.6212 H   0  0  0  0  0  0  0  0  0  0  0  0
   -6.4643   -0.2578    1.1177 H   0  0  0  0  0  0  0  0  0  0  0  0
   -4.6011    1.2119   -1.7984 H   0  0  0  0  0  0  0  0  0  0  0  0
   -3.6410    2.5123   -1.0874 H   0  0  0  0  0  0  0  0  0  0  0  0
   -2.8727    1.2250   -2.0608 H   0  0  0  0  0  0  0  0  0  0  0  0
   -0.3094    0.1939    1.0682 H   0  0  0  0  0  0  0  0  0  0  0  0
    3.7432    3.0902   -0.1016 H   0  0  0  0  0  0  0  0  0  0  0  0
    4.8970    0.4235   -1.5023 H   0  0  0  0  0  0  0  0  0  0  0  0
    5.2298    0.9638    0.1436 H   0  0  0  0  0  0  0  0  0  0  0  0
    3.9599   -1.0859    1.0054 H   0  0  0  0  0  0  0  0  0  0  0  0
    5.5137   -1.3733    0.2470 H   0  0  0  0  0  0  0  0  0  0  0  0
    4.6039   -2.3397   -1.6740 H   0  0  0  0  0  0  0  0  0  0  0  0
    3.6460   -2.9748   -0.3543 H   0  0  0  0  0  0  0  0  0  0  0  0
    2.1230   -2.5358   -2.0772 H   0  0  0  0  0  0  0  0  0  0  0  0
    2.8565   -1.0078   -2.5225 H   0  0  0  0  0  0  0  0  0  0  0  0
    1.3950   -1.4422    0.1446 H   0  0  0  0  0  0  0  0  0  0  0  0
    0.5932   -0.9267   -1.3392 H   0  0  0  0  0  0  0  0  0  0  0  0
  1  2  1  0
  2  3  2  0
  3  4  1  0
  4  5  1  0
  4  6  1  0
  6  7  1  0
  6  8  2  0
  8  9  1  0
  9 10  1  0
 10 11  2  0
 10 12  1  0
 12 13  2  0
 13 14  1  0
 14 15  1  0
 15 16  1  0
 16 17  1  0
 17 18  1  0
 18 19  1  0
 19 20  1  0
 20 21  1  0
  8  2  1  0
 21 12  1  0
 21 15  2  0
  1 22  1  0
  1 23  1  0
  1 24  1  0
  5 25  1  0
  5 26  1  0
  5 27  1  0
  7 28  1  0
  7 29  1  0
  7 30  1  0
  9 31  1  0
 14 32  1  0
 16 33  1  0
 16 34  1  0
 17 35  1  0
 17 36  1  0
 18 37  1  0
 18 38  1  0
 19 39  1  0
 19 40  1  0
 20 41  1  0
 20 42  1  0
M  END
>  <Unnamed: 0>  (152) 
909

>  <ID>  (152) 
TRAIN_0909

>  <Canonical_Smiles>  (152) 
Cc1nn(C)c(C)c1NC(=O)c2n[nH]c3CCCCCc23

>  <Inhibition>  (152) 
26.808347

>  <TDC_conf_true_inhibitor>  (152) 
0

>  <TDC_conf_non_inhibitor>  (152) 
1

>  <split>  (152) 
1

$$$$
152
     RDKit          3D

 56 60  0  0  0  0  0  0  0  0999 V2000
   -4.0412   -3.4159    1.8172 C   0  0  0  0  0  0  0  0  0  0  0  0
   -3.4022   -3.9678    0.5313 C   0  0  0  0  0  0  0  0  0  0  0  0
   -4.4777   -4.7404   -0.2452 C   0  0  0  0  0  0  0  0  0  0  0  0
   -2.8461   -2.8272   -0.3752 C   0  0  0  0  0  0  0  0  0  0  0  0
   -1.5053   -2.3869    0.1067 C   0  0  0  0  0  0  0  0  0  0  0  0
   -0.7973   -3.1725    0.9955 C   0  0  0  0  0  0  0  0  0  0  0  0
   -1.2504   -4.4491    1.5971 C   0  0  0  0  0  0  0  0  0  0  0  0
   -2.3702   -4.9362    0.8402 O   0  0  0  0  0  0  0  0  0  0  0  0
    0.3965   -2.5597    1.2516 N   0  0  0  0  0  0  0  0  0  0  0  0
    0.4678   -1.3959    0.5323 C   0  0  0  0  0  0  0  0  0  0  0  0
    1.5144   -0.5598    0.5584 N   0  0  0  0  0  0  0  0  0  0  0  0
    1.3439    0.5033   -0.2479 C   0  0  0  0  0  0  0  0  0  0  0  0
    2.6328    1.7259   -0.2907 S   0  0  0  0  0  0  0  0  0  0  0  0
    4.0664    0.6404   -0.0451 C   0  0  0  0  0  0  0  0  0  0  0  0
    5.3655    1.3939   -0.1977 C   0  0  0  0  0  0  0  0  0  0  0  0
    5.9756    1.9964    0.9128 C   0  0  0  0  0  0  0  0  0  0  0  0
    7.1734    2.6985    0.7687 C   0  0  0  0  0  0  0  0  0  0  0  0
    7.7704    2.8108   -0.4859 C   0  0  0  0  0  0  0  0  0  0  0  0
    7.1682    2.2264   -1.5983 C   0  0  0  0  0  0  0  0  0  0  0  0
    5.9706    1.5233   -1.4568 C   0  0  0  0  0  0  0  0  0  0  0  0
    0.2691    0.7642   -1.0106 N   0  0  0  0  0  0  0  0  0  0  0  0
   -0.7659   -0.1012   -0.9936 C   0  0  0  0  0  0  0  0  0  0  0  0
   -2.1775    0.2495   -1.9907 S   0  0  0  0  0  0  0  0  0  0  0  0
   -3.1364    1.2238   -0.7917 C   0  0  0  0  0  0  0  0  0  0  0  0
   -2.7007    2.6637   -0.6985 C   0  0  0  0  0  0  0  0  0  0  0  0
   -1.8661    3.0923    0.3441 C   0  0  0  0  0  0  0  0  0  0  0  0
   -1.4606    4.4252    0.4261 C   0  0  0  0  0  0  0  0  0  0  0  0
   -1.8849    5.3444   -0.5312 C   0  0  0  0  0  0  0  0  0  0  0  0
   -2.7102    4.9309   -1.5749 C   0  0  0  0  0  0  0  0  0  0  0  0
   -3.1143    3.5976   -1.6606 C   0  0  0  0  0  0  0  0  0  0  0  0
   -0.7029   -1.2505   -0.2018 C   0  0  0  0  0  0  0  0  0  0  0  0
   -3.3469   -2.7920    2.3887 H   0  0  0  0  0  0  0  0  0  0  0  0
   -4.9234   -2.8059    1.5936 H   0  0  0  0  0  0  0  0  0  0  0  0
   -4.3442   -4.2348    2.4796 H   0  0  0  0  0  0  0  0  0  0  0  0
   -4.8871   -5.5548    0.3637 H   0  0  0  0  0  0  0  0  0  0  0  0
   -5.3018   -4.0881   -0.5521 H   0  0  0  0  0  0  0  0  0  0  0  0
   -4.0537   -5.2096   -1.1401 H   0  0  0  0  0  0  0  0  0  0  0  0
   -3.5546   -1.9930   -0.4067 H   0  0  0  0  0  0  0  0  0  0  0  0
   -2.7164   -3.1974   -1.4003 H   0  0  0  0  0  0  0  0  0  0  0  0
   -1.5435   -4.3203    2.6438 H   0  0  0  0  0  0  0  0  0  0  0  0
   -0.4638   -5.2082    1.5513 H   0  0  0  0  0  0  0  0  0  0  0  0
    1.1303   -2.8906    1.8617 H   0  0  0  0  0  0  0  0  0  0  0  0
    4.0263    0.1912    0.9545 H   0  0  0  0  0  0  0  0  0  0  0  0
    4.0393   -0.1842   -0.7681 H   0  0  0  0  0  0  0  0  0  0  0  0
    5.5165    1.9268    1.8966 H   0  0  0  0  0  0  0  0  0  0  0  0
    7.6378    3.1625    1.6348 H   0  0  0  0  0  0  0  0  0  0  0  0
    8.7008    3.3611   -0.5978 H   0  0  0  0  0  0  0  0  0  0  0  0
    7.6281    2.3225   -2.5785 H   0  0  0  0  0  0  0  0  0  0  0  0
    5.5076    1.0823   -2.3371 H   0  0  0  0  0  0  0  0  0  0  0  0
   -4.1867    1.1944   -1.1052 H   0  0  0  0  0  0  0  0  0  0  0  0
   -3.1101    0.7457    0.1948 H   0  0  0  0  0  0  0  0  0  0  0  0
   -1.5119    2.3872    1.0925 H   0  0  0  0  0  0  0  0  0  0  0  0
   -0.8040    4.7437    1.2313 H   0  0  0  0  0  0  0  0  0  0  0  0
   -1.5631    6.3804   -0.4695 H   0  0  0  0  0  0  0  0  0  0  0  0
   -3.0320    5.6452   -2.3282 H   0  0  0  0  0  0  0  0  0  0  0  0
   -3.7482    3.2881   -2.4888 H   0  0  0  0  0  0  0  0  0  0  0  0
  1  2  1  0
  2  3  1  0
  2  4  1  0
  4  5  1  0
  5  6  2  0
  6  7  1  0
  7  8  1  0
  6  9  1  0
  9 10  1  0
 10 11  2  0
 11 12  1  0
 12 13  1  0
 13 14  1  0
 14 15  1  0
 15 16  2  0
 16 17  1  0
 17 18  2  0
 18 19  1  0
 19 20  2  0
 12 21  2  0
 21 22  1  0
 22 23  1  0
 23 24  1  0
 24 25  1  0
 25 26  2  0
 26 27  1  0
 27 28  2  0
 28 29  1  0
 29 30  2  0
 22 31  2  0
  8  2  1  0
 31  5  1  0
 31 10  1  0
 20 15  1  0
 30 25  1  0
  1 32  1  0
  1 33  1  0
  1 34  1  0
  3 35  1  0
  3 36  1  0
  3 37  1  0
  4 38  1  0
  4 39  1  0
  7 40  1  0
  7 41  1  0
  9 42  1  0
 14 43  1  0
 14 44  1  0
 16 45  1  0
 17 46  1  0
 18 47  1  0
 19 48  1  0
 20 49  1  0
 24 50  1  0
 24 51  1  0
 26 52  1  0
 27 53  1  0
 28 54  1  0
 29 55  1  0
 30 56  1  0
M  END
>  <Unnamed: 0>  (153) 
916

>  <ID>  (153) 
TRAIN_0916

>  <Canonical_Smiles>  (153) 
CC1(C)Cc2c(CO1)[nH]c3nc(SCc4ccccc4)nc(SCc5ccccc5)c23

>  <Inhibition>  (153) 
40.05249

>  <TDC_conf_true_inhibitor>  (153) 
0

>  <TDC_conf_non_inhibitor>  (153) 
1

>  <split>  (153) 
1

$$$$
153
     RDKit          3D

 58 62  0  0  0  0  0  0  0  0999 V2000
   -8.0782   -0.8163   -1.3404 C   0  0  0  0  0  0  0  0  0  0  0  0
   -7.8043   -0.8368    0.1799 C   0  0  0  0  0  0  0  0  0  0  0  0
   -8.9674   -0.0931    0.8759 C   0  0  0  0  0  0  0  0  0  0  0  0
   -7.8020   -2.3061    0.6490 C   0  0  0  0  0  0  0  0  0  0  0  0
   -6.4711   -0.1942    0.5172 C   0  0  0  0  0  0  0  0  0  0  0  0
   -5.3840    0.1246   -0.3385 C   0  0  0  0  0  0  0  0  0  0  0  0
   -4.4259    0.6472    0.4946 C   0  0  0  0  0  0  0  0  0  0  0  0
   -3.1645    1.1053    0.2109 N   0  0  0  0  0  0  0  0  0  0  0  0
   -2.2782    1.5244    1.1878 C   0  0  0  0  0  0  0  0  0  0  0  0
   -2.5158    1.6122    2.3897 O   0  0  0  0  0  0  0  0  0  0  0  0
   -0.9323    1.9646    0.6370 C   0  0  0  0  0  0  0  0  0  0  0  0
   -0.2142    0.6934   -0.4460 S   0  0  0  0  0  0  0  0  0  0  0  0
    1.4100    1.3129   -0.5123 C   0  0  0  0  0  0  0  0  0  0  0  0
    1.6225    2.6113   -0.6557 N   0  0  0  0  0  0  0  0  0  0  0  0
    3.0021    2.7112   -0.7764 N   0  0  0  0  0  0  0  0  0  0  0  0
    3.6177    1.4706   -0.5742 C   0  0  0  0  0  0  0  0  0  0  0  0
    4.9504    1.2883   -0.4450 C   0  0  0  0  0  0  0  0  0  0  0  0
    5.9680    2.3138   -0.6035 C   0  0  0  0  0  0  0  0  0  0  0  0
    7.1740    1.7980   -0.3691 C   0  0  0  0  0  0  0  0  0  0  0  0
    8.5182    2.2783   -0.3694 C   0  0  0  0  0  0  0  0  0  0  0  0
    9.5006    1.4140   -0.0588 C   0  0  0  0  0  0  0  0  0  0  0  0
    9.2193    0.0215    0.2624 C   0  0  0  0  0  0  0  0  0  0  0  0
    7.9764   -0.4898    0.2684 C   0  0  0  0  0  0  0  0  0  0  0  0
    6.8447    0.3999   -0.0595 C   0  0  0  0  0  0  0  0  0  0  0  0
    5.5823    0.1021   -0.1086 N   0  0  0  0  0  0  0  0  0  0  0  0
    2.5725    0.5500   -0.4484 N   0  0  0  0  0  0  0  0  0  0  0  0
    2.6497   -0.8610   -0.4809 C   0  0  0  0  0  0  0  0  0  0  0  0
    3.3495   -1.5274   -1.5001 C   0  0  0  0  0  0  0  0  0  0  0  0
    3.4077   -2.9236   -1.5453 C   0  0  0  0  0  0  0  0  0  0  0  0
    2.7621   -3.6784   -0.5704 C   0  0  0  0  0  0  0  0  0  0  0  0
    2.0673   -3.0397    0.4544 C   0  0  0  0  0  0  0  0  0  0  0  0
    2.0140   -1.6427    0.4974 C   0  0  0  0  0  0  0  0  0  0  0  0
   -4.9037    0.6548    1.7660 O   0  0  0  0  0  0  0  0  0  0  0  0
   -6.1804    0.1234    1.7876 N   0  0  0  0  0  0  0  0  0  0  0  0
   -8.0768    0.2069   -1.7333 H   0  0  0  0  0  0  0  0  0  0  0  0
   -7.3213   -1.3864   -1.8949 H   0  0  0  0  0  0  0  0  0  0  0  0
   -9.0534   -1.2595   -1.5739 H   0  0  0  0  0  0  0  0  0  0  0  0
   -9.9383   -0.5314    0.6091 H   0  0  0  0  0  0  0  0  0  0  0  0
   -8.8804   -0.1387    1.9688 H   0  0  0  0  0  0  0  0  0  0  0  0
   -8.9883    0.9674    0.5927 H   0  0  0  0  0  0  0  0  0  0  0  0
   -7.6619   -2.3801    1.7331 H   0  0  0  0  0  0  0  0  0  0  0  0
   -6.9879   -2.8720    0.1778 H   0  0  0  0  0  0  0  0  0  0  0  0
   -8.7461   -2.8053    0.4015 H   0  0  0  0  0  0  0  0  0  0  0  0
   -5.3073   -0.0165   -1.4038 H   0  0  0  0  0  0  0  0  0  0  0  0
   -2.8281    1.0128   -0.7416 H   0  0  0  0  0  0  0  0  0  0  0  0
   -0.2616    2.1318    1.4860 H   0  0  0  0  0  0  0  0  0  0  0  0
   -1.0652    2.9032    0.0953 H   0  0  0  0  0  0  0  0  0  0  0  0
    3.4753    3.5341   -0.4106 H   0  0  0  0  0  0  0  0  0  0  0  0
    5.7690    3.3350   -0.8848 H   0  0  0  0  0  0  0  0  0  0  0  0
    8.7235    3.3125   -0.6163 H   0  0  0  0  0  0  0  0  0  0  0  0
   10.5415    1.7334   -0.0454 H   0  0  0  0  0  0  0  0  0  0  0  0
   10.0703   -0.6121    0.5047 H   0  0  0  0  0  0  0  0  0  0  0  0
    7.7577   -1.5225    0.5020 H   0  0  0  0  0  0  0  0  0  0  0  0
    3.8597   -0.9539   -2.2698 H   0  0  0  0  0  0  0  0  0  0  0  0
    3.9588   -3.4150   -2.3437 H   0  0  0  0  0  0  0  0  0  0  0  0
    2.8109   -4.7634   -0.6000 H   0  0  0  0  0  0  0  0  0  0  0  0
    1.5755   -3.6257    1.2285 H   0  0  0  0  0  0  0  0  0  0  0  0
    1.4877   -1.1673    1.3228 H   0  0  0  0  0  0  0  0  0  0  0  0
  1  2  1  0
  2  3  1  0
  2  4  1  0
  2  5  1  0
  5  6  1  0
  6  7  2  0
  7  8  1  0
  8  9  1  0
  9 10  2  0
  9 11  1  0
 11 12  1  0
 12 13  1  0
 13 14  2  0
 14 15  1  0
 15 16  1  0
 16 17  2  0
 17 18  1  0
 18 19  2  0
 19 20  1  0
 20 21  2  0
 21 22  1  0
 22 23  2  0
 23 24  1  0
 24 25  2  0
 16 26  1  0
 26 27  1  0
 27 28  2  0
 28 29  1  0
 29 30  2  0
 30 31  1  0
 31 32  2  0
  7 33  1  0
 33 34  1  0
 34  5  2  0
 26 13  1  0
 25 17  1  0
 24 19  1  0
 32 27  1  0
  1 35  1  0
  1 36  1  0
  1 37  1  0
  3 38  1  0
  3 39  1  0
  3 40  1  0
  4 41  1  0
  4 42  1  0
  4 43  1  0
  6 44  1  0
  8 45  1  0
 11 46  1  0
 11 47  1  0
 15 48  1  0
 18 49  1  0
 20 50  1  0
 21 51  1  0
 22 52  1  0
 23 53  1  0
 28 54  1  0
 29 55  1  0
 30 56  1  0
 31 57  1  0
 32 58  1  0
M  END
>  <Unnamed: 0>  (154) 
921

>  <ID>  (154) 
TRAIN_0921

>  <Canonical_Smiles>  (154) 
CC(C)(C)c1cc(NC(=O)CSC2=NN\C(=C\3/C=C4C=CC=CC4=N3)\N2c5ccccc5)on1

>  <Inhibition>  (154) 
51.072206

>  <TDC_conf_true_inhibitor>  (154) 
1

>  <TDC_conf_non_inhibitor>  (154) 
0

>  <split>  (154) 
1

$$$$
154
     RDKit          3D

 59 62  0  0  0  0  0  0  0  0999 V2000
    6.2503    1.0807    1.7786 C   0  0  0  0  0  0  0  0  0  0  0  0
    5.8185    1.3439    0.3370 C   0  0  0  0  0  0  0  0  0  0  0  0
    4.8855    0.3317   -0.1713 N   0  0  0  0  0  0  0  0  0  0  0  0
    3.6183    0.2981    0.5905 C   0  0  0  0  0  0  0  0  0  0  0  0
    2.4610   -0.3796   -0.1679 C   0  0  0  0  0  0  0  0  0  0  0  0
    2.1792    0.2902   -1.4427 N   0  0  0  0  0  0  0  0  0  0  0  0
    3.2832    1.0518   -2.0184 C   0  0  0  0  0  0  0  0  0  0  0  0
    4.6533    0.4745   -1.6256 C   0  0  0  0  0  0  0  0  0  0  0  0
    0.9031    0.4889   -1.9555 C   0  0  0  0  0  0  0  0  0  0  0  0
    0.6931    1.3280   -2.8308 O   0  0  0  0  0  0  0  0  0  0  0  0
   -0.1647   -0.3481   -1.4371 C   0  0  0  0  0  0  0  0  0  0  0  0
   -0.1943   -1.7347   -1.3249 C   0  0  0  0  0  0  0  0  0  0  0  0
   -1.4616   -2.1006   -0.8262 C   0  0  0  0  0  0  0  0  0  0  0  0
   -2.0691   -3.3713   -0.5123 C   0  0  0  0  0  0  0  0  0  0  0  0
   -1.4534   -4.4285   -0.6358 O   0  0  0  0  0  0  0  0  0  0  0  0
   -3.3976   -3.2578   -0.0527 N   0  0  0  0  0  0  0  0  0  0  0  0
   -4.0794   -4.4261    0.2689 C   0  0  0  0  0  0  0  0  0  0  0  0
   -5.3390   -4.4149    0.7154 C   0  0  0  0  0  0  0  0  0  0  0  0
   -6.0329   -3.1695    0.8789 C   0  0  0  0  0  0  0  0  0  0  0  0
   -5.4414   -1.9998    0.5918 C   0  0  0  0  0  0  0  0  0  0  0  0
   -6.1207   -0.6753    0.7522 C   0  0  0  0  0  0  0  0  0  0  0  0
   -4.0220   -1.9968    0.0848 C   0  0  0  0  0  0  0  0  0  0  0  0
   -3.4533   -0.8519   -0.1918 N   0  0  0  0  0  0  0  0  0  0  0  0
   -2.1866   -0.9534   -0.6452 C   0  0  0  0  0  0  0  0  0  0  0  0
   -1.3976    0.1133   -1.0005 N   0  0  0  0  0  0  0  0  0  0  0  0
   -1.8058    1.5042   -0.8931 C   0  0  0  0  0  0  0  0  0  0  0  0
   -1.9877    2.0031    0.5440 C   0  0  0  0  0  0  0  0  0  0  0  0
   -0.7635    1.8156    1.4374 C   0  0  0  0  0  0  0  0  0  0  0  0
    0.4481    2.2947    0.8609 O   0  0  0  0  0  0  0  0  0  0  0  0
    0.5273    3.7125    0.7976 C   0  0  0  0  0  0  0  0  0  0  0  0
    5.4236    1.2174    2.4814 H   0  0  0  0  0  0  0  0  0  0  0  0
    7.0445    1.7783    2.0650 H   0  0  0  0  0  0  0  0  0  0  0  0
    6.6389    0.0620    1.8924 H   0  0  0  0  0  0  0  0  0  0  0  0
    6.7283    1.3281   -0.2749 H   0  0  0  0  0  0  0  0  0  0  0  0
    5.3944    2.3529    0.2576 H   0  0  0  0  0  0  0  0  0  0  0  0
    3.7789   -0.2437    1.5298 H   0  0  0  0  0  0  0  0  0  0  0  0
    3.3029    1.3195    0.8461 H   0  0  0  0  0  0  0  0  0  0  0  0
    2.7206   -1.4193   -0.3972 H   0  0  0  0  0  0  0  0  0  0  0  0
    1.5732   -0.3819    0.4704 H   0  0  0  0  0  0  0  0  0  0  0  0
    3.1905    2.0882   -1.6712 H   0  0  0  0  0  0  0  0  0  0  0  0
    3.1806    1.0592   -3.1092 H   0  0  0  0  0  0  0  0  0  0  0  0
    5.4471    1.0568   -2.1096 H   0  0  0  0  0  0  0  0  0  0  0  0
    4.7281   -0.5360   -2.0487 H   0  0  0  0  0  0  0  0  0  0  0  0
    0.6089   -2.4073   -1.5988 H   0  0  0  0  0  0  0  0  0  0  0  0
   -3.5420   -5.3614    0.1409 H   0  0  0  0  0  0  0  0  0  0  0  0
   -5.8539   -5.3379    0.9616 H   0  0  0  0  0  0  0  0  0  0  0  0
   -7.0548   -3.2087    1.2456 H   0  0  0  0  0  0  0  0  0  0  0  0
   -6.1634   -0.1442   -0.2047 H   0  0  0  0  0  0  0  0  0  0  0  0
   -7.1488   -0.7865    1.1135 H   0  0  0  0  0  0  0  0  0  0  0  0
   -5.5818   -0.0553    1.4747 H   0  0  0  0  0  0  0  0  0  0  0  0
   -2.7510    1.5992   -1.4422 H   0  0  0  0  0  0  0  0  0  0  0  0
   -1.0830    2.1350   -1.4141 H   0  0  0  0  0  0  0  0  0  0  0  0
   -2.8409    1.5052    1.0177 H   0  0  0  0  0  0  0  0  0  0  0  0
   -2.2455    3.0669    0.4970 H   0  0  0  0  0  0  0  0  0  0  0  0
   -0.9258    2.2947    2.4099 H   0  0  0  0  0  0  0  0  0  0  0  0
   -0.6170    0.7500    1.6408 H   0  0  0  0  0  0  0  0  0  0  0  0
    0.3591    4.1568    1.7845 H   0  0  0  0  0  0  0  0  0  0  0  0
    1.5311    3.9814    0.4593 H   0  0  0  0  0  0  0  0  0  0  0  0
   -0.1928    4.1081    0.0764 H   0  0  0  0  0  0  0  0  0  0  0  0
  1  2  1  0
  2  3  1  0
  3  4  1  0
  4  5  1  0
  5  6  1  0
  6  7  1  0
  7  8  1  0
  6  9  1  0
  9 10  2  0
  9 11  1  0
 11 12  2  0
 12 13  1  0
 13 14  1  0
 14 15  2  0
 14 16  1  0
 16 17  1  0
 17 18  2  0
 18 19  1  0
 19 20  2  0
 20 21  1  0
 20 22  1  0
 22 23  2  0
 23 24  1  0
 24 25  1  0
 25 26  1  0
 26 27  1  0
 27 28  1  0
 28 29  1  0
 29 30  1  0
  8  3  1  0
 25 11  1  0
 24 13  2  0
 22 16  1  0
  1 31  1  0
  1 32  1  0
  1 33  1  0
  2 34  1  0
  2 35  1  0
  4 36  1  0
  4 37  1  0
  5 38  1  0
  5 39  1  0
  7 40  1  0
  7 41  1  0
  8 42  1  0
  8 43  1  0
 12 44  1  0
 17 45  1  0
 18 46  1  0
 19 47  1  0
 21 48  1  0
 21 49  1  0
 21 50  1  0
 26 51  1  0
 26 52  1  0
 27 53  1  0
 27 54  1  0
 28 55  1  0
 28 56  1  0
 30 57  1  0
 30 58  1  0
 30 59  1  0
M  END
>  <Unnamed: 0>  (155) 
932

>  <ID>  (155) 
TRAIN_0932

>  <Canonical_Smiles>  (155) 
CCN1CCN(CC1)C(=O)c2cc3C(=O)N4C=CC=C(C)C4=Nc3n2CCCOC

>  <Inhibition>  (155) 
42.0505

>  <TDC_conf_true_inhibitor>  (155) 
0

>  <TDC_conf_non_inhibitor>  (155) 
1

>  <split>  (155) 
1

$$$$
155
     RDKit          3D

 60 64  0  0  0  0  0  0  0  0999 V2000
    0.6072   -2.9672    2.6337 C   0  0  0  0  0  0  0  0  0  0  0  0
    1.2108   -3.3458    1.4033 O   0  0  0  0  0  0  0  0  0  0  0  0
    0.2579   -3.6684    0.3914 C   0  0  0  0  0  0  0  0  0  0  0  0
    0.0760   -2.5298   -0.6162 C   0  0  0  0  0  0  0  0  0  0  0  0
   -0.6662   -1.3865   -0.1240 N   0  0  0  0  0  0  0  0  0  0  0  0
   -2.0208   -1.3059    0.0761 C   0  0  0  0  0  0  0  0  0  0  0  0
   -3.1123   -2.6388   -0.0871 S   0  0  0  0  0  0  0  0  0  0  0  0
   -4.7061   -1.7616   -0.0486 C   0  0  0  0  0  0  0  0  0  0  0  0
   -4.9354   -0.9565   -1.3287 C   0  0  0  0  0  0  0  0  0  0  0  0
   -4.5283   -1.3556   -2.4238 O   0  0  0  0  0  0  0  0  0  0  0  0
   -5.6671    0.2197   -1.2228 N   0  0  0  0  0  0  0  0  0  0  0  0
   -6.2724    0.7394    0.0065 C   0  0  0  0  0  0  0  0  0  0  0  0
   -7.4701    1.6443   -0.3092 C   0  0  0  0  0  0  0  0  0  0  0  0
   -7.1424    2.7642   -1.1414 O   0  0  0  0  0  0  0  0  0  0  0  0
   -6.0378    2.5285   -2.0290 C   0  0  0  0  0  0  0  0  0  0  0  0
   -5.8497    1.0562   -2.4110 C   0  0  0  0  0  0  0  0  0  0  0  0
   -2.3573   -0.0812    0.4019 N   0  0  0  0  0  0  0  0  0  0  0  0
   -1.2207    0.6825    0.3740 N   0  0  0  0  0  0  0  0  0  0  0  0
   -0.2033   -0.1013    0.0702 C   0  0  0  0  0  0  0  0  0  0  0  0
    1.1332    0.3939   -0.0700 C   0  0  0  0  0  0  0  0  0  0  0  0
    1.5262    1.4810   -0.8472 C   0  0  0  0  0  0  0  0  0  0  0  0
    2.8906    1.6865   -0.6655 C   0  0  0  0  0  0  0  0  0  0  0  0
    3.8148    2.5890   -1.1585 C   0  0  0  0  0  0  0  0  0  0  0  0
    3.6336    3.6952   -2.1256 C   0  0  0  0  0  0  0  0  0  0  0  0
    5.0198    2.3319   -0.6140 N   0  0  0  0  0  0  0  0  0  0  0  0
    4.8253    1.2556    0.2390 N   0  0  0  0  0  0  0  0  0  0  0  0
    5.9181    0.7504    1.0040 C   0  0  0  0  0  0  0  0  0  0  0  0
    7.1715    1.3804    0.9028 C   0  0  0  0  0  0  0  0  0  0  0  0
    8.2578    0.9275    1.6542 C   0  0  0  0  0  0  0  0  0  0  0  0
    8.1100   -0.1613    2.5076 C   0  0  0  0  0  0  0  0  0  0  0  0
    6.8744   -0.7973    2.6106 C   0  0  0  0  0  0  0  0  0  0  0  0
    5.7804   -0.3433    1.8660 C   0  0  0  0  0  0  0  0  0  0  0  0
    3.5108    0.8619    0.1876 C   0  0  0  0  0  0  0  0  0  0  0  0
    2.4630   -0.2560    0.8435 S   0  0  0  0  0  0  0  0  0  0  0  0
   -0.0169   -2.0790    2.5077 H   0  0  0  0  0  0  0  0  0  0  0  0
    1.4008   -2.7327    3.3488 H   0  0  0  0  0  0  0  0  0  0  0  0
    0.0090   -3.7900    3.0369 H   0  0  0  0  0  0  0  0  0  0  0  0
   -0.6827   -4.0111    0.8319 H   0  0  0  0  0  0  0  0  0  0  0  0
    0.6763   -4.5219   -0.1550 H   0  0  0  0  0  0  0  0  0  0  0  0
   -0.4659   -2.8998   -1.4961 H   0  0  0  0  0  0  0  0  0  0  0  0
    1.0496   -2.1837   -0.9753 H   0  0  0  0  0  0  0  0  0  0  0  0
   -5.5149   -2.4993    0.0280 H   0  0  0  0  0  0  0  0  0  0  0  0
   -4.7251   -1.1377    0.8502 H   0  0  0  0  0  0  0  0  0  0  0  0
   -6.5951   -0.0902    0.6459 H   0  0  0  0  0  0  0  0  0  0  0  0
   -5.4885    1.3032    0.5276 H   0  0  0  0  0  0  0  0  0  0  0  0
   -8.2499    1.0668   -0.8229 H   0  0  0  0  0  0  0  0  0  0  0  0
   -7.9042    2.0324    0.6178 H   0  0  0  0  0  0  0  0  0  0  0  0
   -6.2011    3.1342   -2.9264 H   0  0  0  0  0  0  0  0  0  0  0  0
   -5.1376    2.9110   -1.5356 H   0  0  0  0  0  0  0  0  0  0  0  0
   -6.7453    0.6810   -2.9170 H   0  0  0  0  0  0  0  0  0  0  0  0
   -4.9989    0.9444   -3.0898 H   0  0  0  0  0  0  0  0  0  0  0  0
    0.8515    2.0569   -1.4689 H   0  0  0  0  0  0  0  0  0  0  0  0
    2.8760    4.3992   -1.7672 H   0  0  0  0  0  0  0  0  0  0  0  0
    4.5639    4.2514   -2.2786 H   0  0  0  0  0  0  0  0  0  0  0  0
    3.3097    3.3037   -3.0958 H   0  0  0  0  0  0  0  0  0  0  0  0
    7.3188    2.2365    0.2451 H   0  0  0  0  0  0  0  0  0  0  0  0
    9.2182    1.4338    1.5786 H   0  0  0  0  0  0  0  0  0  0  0  0
    8.9551   -0.5132    3.0933 H   0  0  0  0  0  0  0  0  0  0  0  0
    6.7600   -1.6530    3.2735 H   0  0  0  0  0  0  0  0  0  0  0  0
    4.8456   -0.8755    1.9933 H   0  0  0  0  0  0  0  0  0  0  0  0
  1  2  1  0
  2  3  1  0
  3  4  1  0
  4  5  1  0
  5  6  1  0
  6  7  1  0
  7  8  1  0
  8  9  1  0
  9 10  2  0
  9 11  1  0
 11 12  1  0
 12 13  1  0
 13 14  1  0
 14 15  1  0
 15 16  1  0
  6 17  2  0
 17 18  1  0
 18 19  2  0
 19 20  1  0
 20 21  2  0
 21 22  1  0
 22 23  1  0
 23 24  1  0
 23 25  2  0
 25 26  1  0
 26 27  1  0
 27 28  2  0
 28 29  1  0
 29 30  2  0
 30 31  1  0
 31 32  2  0
 26 33  1  0
 33 34  1  0
 19  5  1  0
 16 11  1  0
 34 20  1  0
 33 22  2  0
 32 27  1  0
  1 35  1  0
  1 36  1  0
  1 37  1  0
  3 38  1  0
  3 39  1  0
  4 40  1  0
  4 41  1  0
  8 42  1  0
  8 43  1  0
 12 44  1  0
 12 45  1  0
 13 46  1  0
 13 47  1  0
 15 48  1  0
 15 49  1  0
 16 50  1  0
 16 51  1  0
 21 52  1  0
 24 53  1  0
 24 54  1  0
 24 55  1  0
 28 56  1  0
 29 57  1  0
 30 58  1  0
 31 59  1  0
 32 60  1  0
M  END
>  <Unnamed: 0>  (156) 
938

>  <ID>  (156) 
TRAIN_0938

>  <Canonical_Smiles>  (156) 
COCCn1c(SCC(=O)N2CCOCC2)nnc1c3cc4c(C)nn(c5ccccc5)c4s3

>  <Inhibition>  (156) 
47.653684

>  <TDC_conf_true_inhibitor>  (156) 
1

>  <TDC_conf_non_inhibitor>  (156) 
0

>  <split>  (156) 
1

$$$$
156
     RDKit          3D

 49 53  0  0  0  0  0  0  0  0999 V2000
    9.5519    0.6514   -0.2994 Cl  0  0  0  0  0  0  0  0  0  0  0  0
    7.9663   -0.0275   -0.1719 C   0  0  0  0  0  0  0  0  0  0  0  0
    7.8684   -1.3578    0.2383 C   0  0  0  0  0  0  0  0  0  0  0  0
    6.6175   -1.9573    0.3581 C   0  0  0  0  0  0  0  0  0  0  0  0
    5.4580   -1.2324    0.0686 C   0  0  0  0  0  0  0  0  0  0  0  0
    5.5332    0.1016   -0.3444 C   0  0  0  0  0  0  0  0  0  0  0  0
    4.3880    0.8811   -0.6486 N   0  0  0  0  0  0  0  0  0  0  0  0
    3.0525    0.5006   -0.6091 C   0  0  0  0  0  0  0  0  0  0  0  0
    2.6370   -0.6153   -0.3103 O   0  0  0  0  0  0  0  0  0  0  0  0
    2.1241    1.6550   -1.0093 C   0  0  0  0  0  0  0  0  0  0  0  0
    0.7273    1.2775   -0.8778 N   0  0  0  0  0  0  0  0  0  0  0  0
    0.1053    0.7861   -2.0287 N   0  0  0  0  0  0  0  0  0  0  0  0
   -1.1167    0.3305   -1.9579 C   0  0  0  0  0  0  0  0  0  0  0  0
   -1.7294   -0.2117   -3.1505 C   0  0  0  0  0  0  0  0  0  0  0  0
   -1.3615    0.3379   -4.3555 O   0  0  0  0  0  0  0  0  0  0  0  0
   -2.0342   -0.3159   -5.3335 C   0  0  0  0  0  0  0  0  0  0  0  0
   -2.8280   -1.2973   -4.7952 C   0  0  0  0  0  0  0  0  0  0  0  0
   -2.6268   -1.2394   -3.3938 C   0  0  0  0  0  0  0  0  0  0  0  0
   -1.8301    0.3785   -0.7110 C   0  0  0  0  0  0  0  0  0  0  0  0
   -3.4465   -0.0203   -0.3971 S   0  0  0  0  0  0  0  0  0  0  0  0
   -3.2506    0.4199    1.2677 C   0  0  0  0  0  0  0  0  0  0  0  0
   -2.0486    0.8710    1.5553 N   0  0  0  0  0  0  0  0  0  0  0  0
   -1.2377    0.8603    0.4317 C   0  0  0  0  0  0  0  0  0  0  0  0
    0.1393    1.3344    0.3990 C   0  0  0  0  0  0  0  0  0  0  0  0
    0.7272    1.7656    1.3888 O   0  0  0  0  0  0  0  0  0  0  0  0
   -4.2443    0.3272    2.1823 N   0  0  0  0  0  0  0  0  0  0  0  0
   -3.9861    0.5813    3.5929 C   0  0  0  0  0  0  0  0  0  0  0  0
   -5.1425   -0.1179    4.3063 C   0  0  0  0  0  0  0  0  0  0  0  0
   -6.2669   -0.0645    3.2838 C   0  0  0  0  0  0  0  0  0  0  0  0
   -5.5368   -0.2930    1.9621 C   0  0  0  0  0  0  0  0  0  0  0  0
    6.8054    0.7050   -0.4634 C   0  0  0  0  0  0  0  0  0  0  0  0
    6.9071    2.3657   -0.9785 Cl  0  0  0  0  0  0  0  0  0  0  0  0
    8.7625   -1.9332    0.4672 H   0  0  0  0  0  0  0  0  0  0  0  0
    6.5379   -2.9940    0.6795 H   0  0  0  0  0  0  0  0  0  0  0  0
    4.5069   -1.7450    0.1807 H   0  0  0  0  0  0  0  0  0  0  0  0
    4.5920    1.8389   -0.9204 H   0  0  0  0  0  0  0  0  0  0  0  0
    2.3243    1.9323   -2.0501 H   0  0  0  0  0  0  0  0  0  0  0  0
    2.3318    2.5173   -0.3662 H   0  0  0  0  0  0  0  0  0  0  0  0
   -1.8389    0.0227   -6.3417 H   0  0  0  0  0  0  0  0  0  0  0  0
   -3.4618   -1.9793   -5.3446 H   0  0  0  0  0  0  0  0  0  0  0  0
   -3.0727   -1.8934   -2.6576 H   0  0  0  0  0  0  0  0  0  0  0  0
   -3.0271    0.1769    3.9355 H   0  0  0  0  0  0  0  0  0  0  0  0
   -4.0081    1.6598    3.7859 H   0  0  0  0  0  0  0  0  0  0  0  0
   -4.8779   -1.1619    4.5141 H   0  0  0  0  0  0  0  0  0  0  0  0
   -5.4031    0.3635    5.2529 H   0  0  0  0  0  0  0  0  0  0  0  0
   -6.7314    0.9290    3.2914 H   0  0  0  0  0  0  0  0  0  0  0  0
   -7.0456   -0.8100    3.4670 H   0  0  0  0  0  0  0  0  0  0  0  0
   -5.4205   -1.3667    1.7735 H   0  0  0  0  0  0  0  0  0  0  0  0
   -6.0899    0.1622    1.1340 H   0  0  0  0  0  0  0  0  0  0  0  0
  1  2  1  0
  2  3  2  0
  3  4  1  0
  4  5  2  0
  5  6  1  0
  6  7  1  0
  7  8  1  0
  8  9  2  0
  8 10  1  0
 10 11  1  0
 11 12  1  0
 12 13  2  0
 13 14  1  0
 14 15  1  0
 15 16  1  0
 16 17  2  0
 17 18  1  0
 13 19  1  0
 19 20  1  0
 20 21  1  0
 21 22  2  0
 22 23  1  0
 23 24  1  0
 24 25  2  0
 21 26  1  0
 26 27  1  0
 27 28  1  0
 28 29  1  0
 29 30  1  0
  6 31  2  0
 31 32  1  0
 31  2  1  0
 24 11  1  0
 18 14  2  0
 23 19  2  0
 30 26  1  0
  3 33  1  0
  4 34  1  0
  5 35  1  0
  7 36  1  0
 10 37  1  0
 10 38  1  0
 16 39  1  0
 17 40  1  0
 18 41  1  0
 27 42  1  0
 27 43  1  0
 28 44  1  0
 28 45  1  0
 29 46  1  0
 29 47  1  0
 30 48  1  0
 30 49  1  0
M  END
>  <Unnamed: 0>  (157) 
939

>  <ID>  (157) 
TRAIN_0939

>  <Canonical_Smiles>  (157) 
Clc1cccc(NC(=O)CN2N=C(c3occc3)c4sc(nc4C2=O)N5CCCC5)c1Cl

>  <Inhibition>  (157) 
44.400426

>  <TDC_conf_true_inhibitor>  (157) 
1

>  <TDC_conf_non_inhibitor>  (157) 
0

>  <split>  (157) 
1

$$$$
157
     RDKit          3D

 47 50  0  0  0  0  0  0  0  0999 V2000
   -3.3147    3.2822    0.5145 C   0  0  0  0  0  0  0  0  0  0  0  0
   -2.8133    2.1741   -0.2909 N   0  0  0  0  0  0  0  0  0  0  0  0
   -1.9451    1.2398    0.2772 C   0  0  0  0  0  0  0  0  0  0  0  0
   -1.5055    0.1906   -0.4653 C   0  0  0  0  0  0  0  0  0  0  0  0
   -1.9456    0.0917   -1.8879 C   0  0  0  0  0  0  0  0  0  0  0  0
   -1.4629   -0.7186   -2.6767 O   0  0  0  0  0  0  0  0  0  0  0  0
   -2.8836    0.9846   -2.2951 N   0  0  0  0  0  0  0  0  0  0  0  0
   -3.2860    2.0759   -1.5916 C   0  0  0  0  0  0  0  0  0  0  0  0
   -4.0131    2.9057   -2.1354 O   0  0  0  0  0  0  0  0  0  0  0  0
   -0.6257   -0.8420    0.0108 C   0  0  0  0  0  0  0  0  0  0  0  0
    0.7419   -0.7149    0.2438 C   0  0  0  0  0  0  0  0  0  0  0  0
    1.1887   -1.9518    0.6744 N   0  0  0  0  0  0  0  0  0  0  0  0
    0.1439   -2.8294    0.7192 C   0  0  0  0  0  0  0  0  0  0  0  0
    0.2024   -4.1607    1.0960 N   0  0  0  0  0  0  0  0  0  0  0  0
    1.4268   -4.8251    1.5077 C   0  0  0  0  0  0  0  0  0  0  0  0
   -0.9939   -4.8867    1.0513 C   0  0  0  0  0  0  0  0  0  0  0  0
   -1.0829   -6.0752    1.3600 O   0  0  0  0  0  0  0  0  0  0  0  0
   -2.1277   -4.2138    0.6396 N   0  0  0  0  0  0  0  0  0  0  0  0
   -2.2427   -2.8925    0.2660 C   0  0  0  0  0  0  0  0  0  0  0  0
   -3.3123   -2.3896   -0.0595 O   0  0  0  0  0  0  0  0  0  0  0  0
   -0.9930   -2.1779    0.3149 C   0  0  0  0  0  0  0  0  0  0  0  0
    1.6546    0.4113    0.0674 C   0  0  0  0  0  0  0  0  0  0  0  0
    2.4438    0.8588    1.1331 C   0  0  0  0  0  0  0  0  0  0  0  0
    3.3103    1.9431    0.9650 C   0  0  0  0  0  0  0  0  0  0  0  0
    3.4097    2.5928   -0.2747 C   0  0  0  0  0  0  0  0  0  0  0  0
    2.6140    2.1433   -1.3383 C   0  0  0  0  0  0  0  0  0  0  0  0
    1.7477    1.0596   -1.1688 C   0  0  0  0  0  0  0  0  0  0  0  0
    4.3287    3.7785   -0.4467 C   0  0  0  0  0  0  0  0  0  0  0  0
    3.7338    4.9479   -0.0845 F   0  0  0  0  0  0  0  0  0  0  0  0
    4.7499    3.9515   -1.7300 F   0  0  0  0  0  0  0  0  0  0  0  0
    5.4602    3.6852    0.3067 F   0  0  0  0  0  0  0  0  0  0  0  0
   -1.5466    1.4079    1.6042 N   0  0  0  0  0  0  0  0  0  0  0  0
   -2.4849    3.9556    0.7516 H   0  0  0  0  0  0  0  0  0  0  0  0
   -4.0816    3.8609   -0.0082 H   0  0  0  0  0  0  0  0  0  0  0  0
   -3.7607    2.8949    1.4364 H   0  0  0  0  0  0  0  0  0  0  0  0
   -3.1771    0.9361   -3.2575 H   0  0  0  0  0  0  0  0  0  0  0  0
    2.1523   -2.1715    0.8845 H   0  0  0  0  0  0  0  0  0  0  0  0
    1.2538   -5.8683    1.7845 H   0  0  0  0  0  0  0  0  0  0  0  0
    1.8443   -4.2981    2.3711 H   0  0  0  0  0  0  0  0  0  0  0  0
    2.1411   -4.7958    0.6792 H   0  0  0  0  0  0  0  0  0  0  0  0
   -2.9765   -4.7552    0.6181 H   0  0  0  0  0  0  0  0  0  0  0  0
    2.3819    0.3800    2.1079 H   0  0  0  0  0  0  0  0  0  0  0  0
    3.9107    2.2822    1.8086 H   0  0  0  0  0  0  0  0  0  0  0  0
    2.6676    2.6327   -2.3103 H   0  0  0  0  0  0  0  0  0  0  0  0
    1.1546    0.7186   -2.0164 H   0  0  0  0  0  0  0  0  0  0  0  0
   -0.7678    0.8055    1.8602 H   0  0  0  0  0  0  0  0  0  0  0  0
   -1.3192    2.3763    1.8065 H   0  0  0  0  0  0  0  0  0  0  0  0
  1  2  1  0
  2  3  1  0
  3  4  2  0
  4  5  1  0
  5  6  2  0
  5  7  1  0
  7  8  1  0
  8  9  2  0
  4 10  1  0
 10 11  2  0
 11 12  1  0
 12 13  1  0
 13 14  1  0
 14 15  1  0
 14 16  1  0
 16 17  2  0
 16 18  1  0
 18 19  1  0
 19 20  2  0
 19 21  1  0
 11 22  1  0
 22 23  2  0
 23 24  1  0
 24 25  2  0
 25 26  1  0
 26 27  2  0
 25 28  1  0
 28 29  1  0
 28 30  1  0
 28 31  1  0
  3 32  1  0
  8  2  1  0
 21 10  1  0
 21 13  2  0
 27 22  1  0
  1 33  1  0
  1 34  1  0
  1 35  1  0
  7 36  1  0
 12 37  1  0
 15 38  1  0
 15 39  1  0
 15 40  1  0
 18 41  1  0
 23 42  1  0
 24 43  1  0
 26 44  1  0
 27 45  1  0
 32 46  1  0
 32 47  1  0
M  END
>  <Unnamed: 0>  (158) 
940

>  <ID>  (158) 
TRAIN_0940

>  <Canonical_Smiles>  (158) 
CN1C(=C(C(=O)NC1=O)c2c([nH]c3N(C)C(=O)NC(=O)c23)c4ccc(cc4)C(F)(F)F)N

>  <Inhibition>  (158) 
36.608851

>  <TDC_conf_true_inhibitor>  (158) 
0

>  <TDC_conf_non_inhibitor>  (158) 
1

>  <split>  (158) 
1

$$$$
158
     RDKit          3D

 42 46  0  0  0  0  0  0  0  0999 V2000
    7.3464   -2.4769   -2.5258 Cl  0  0  0  0  0  0  0  0  0  0  0  0
    6.6255   -1.2620   -1.5444 C   0  0  0  0  0  0  0  0  0  0  0  0
    7.4108   -0.2250   -1.0410 C   0  0  0  0  0  0  0  0  0  0  0  0
    6.8244    0.7594   -0.2449 C   0  0  0  0  0  0  0  0  0  0  0  0
    5.4545    0.6913    0.0371 C   0  0  0  0  0  0  0  0  0  0  0  0
    4.7965    1.7047    0.8700 C   0  0  0  0  0  0  0  0  0  0  0  0
    5.4336    2.6384    1.3426 O   0  0  0  0  0  0  0  0  0  0  0  0
    3.4686    1.5654    1.0927 O   0  0  0  0  0  0  0  0  0  0  0  0
    2.8037    0.5211    0.5557 C   0  0  0  0  0  0  0  0  0  0  0  0
    3.3082   -0.4100   -0.1838 N   0  0  0  0  0  0  0  0  0  0  0  0
    4.6704   -0.3388   -0.4620 C   0  0  0  0  0  0  0  0  0  0  0  0
    5.2612   -1.3217   -1.2583 C   0  0  0  0  0  0  0  0  0  0  0  0
    1.3622    0.5606    0.9248 C   0  0  0  0  0  0  0  0  0  0  0  0
    0.8322    1.5848    1.7524 C   0  0  0  0  0  0  0  0  0  0  0  0
   -0.5271    1.6113    2.0933 C   0  0  0  0  0  0  0  0  0  0  0  0
   -1.3244    0.6027    1.5919 C   0  0  0  0  0  0  0  0  0  0  0  0
   -2.7556    0.3527    1.7582 C   0  0  0  0  0  0  0  0  0  0  0  0
   -3.5003    1.0537    2.4156 O   0  0  0  0  0  0  0  0  0  0  0  0
   -3.0333   -0.7812    1.0479 N   0  0  0  0  0  0  0  0  0  0  0  0
   -4.3548   -1.3523    0.9165 C   0  0  0  0  0  0  0  0  0  0  0  0
   -5.0977   -0.7649   -0.2513 C   0  0  0  0  0  0  0  0  0  0  0  0
   -5.8691    0.3936   -0.1180 C   0  0  0  0  0  0  0  0  0  0  0  0
   -6.5237    0.9181   -1.2281 C   0  0  0  0  0  0  0  0  0  0  0  0
   -6.3788    0.2684   -2.4420 C   0  0  0  0  0  0  0  0  0  0  0  0
   -5.6331   -0.8439   -2.6131 N   0  0  0  0  0  0  0  0  0  0  0  0
   -5.0060   -1.3320   -1.5188 C   0  0  0  0  0  0  0  0  0  0  0  0
   -1.9211   -1.2880    0.4365 C   0  0  0  0  0  0  0  0  0  0  0  0
   -1.8130   -2.2755   -0.2640 O   0  0  0  0  0  0  0  0  0  0  0  0
   -0.8149   -0.3983    0.7852 C   0  0  0  0  0  0  0  0  0  0  0  0
    0.5202   -0.4508    0.4321 C   0  0  0  0  0  0  0  0  0  0  0  0
    8.4741   -0.1787   -1.2643 H   0  0  0  0  0  0  0  0  0  0  0  0
    7.4303    1.5718    0.1516 H   0  0  0  0  0  0  0  0  0  0  0  0
    4.6508   -2.1303   -1.6518 H   0  0  0  0  0  0  0  0  0  0  0  0
    1.4746    2.3747    2.1403 H   0  0  0  0  0  0  0  0  0  0  0  0
   -0.9396    2.3925    2.7248 H   0  0  0  0  0  0  0  0  0  0  0  0
   -4.2681   -2.4387    0.7953 H   0  0  0  0  0  0  0  0  0  0  0  0
   -4.9166   -1.1717    1.8408 H   0  0  0  0  0  0  0  0  0  0  0  0
   -5.9574    0.8929    0.8451 H   0  0  0  0  0  0  0  0  0  0  0  0
   -7.1293    1.8139   -1.1487 H   0  0  0  0  0  0  0  0  0  0  0  0
   -6.8703    0.6381   -3.3373 H   0  0  0  0  0  0  0  0  0  0  0  0
   -4.4027   -2.2194   -1.6998 H   0  0  0  0  0  0  0  0  0  0  0  0
    0.8889   -1.2501   -0.2050 H   0  0  0  0  0  0  0  0  0  0  0  0
  1  2  1  0
  2  3  2  0
  3  4  1  0
  4  5  2  0
  5  6  1  0
  6  7  2  0
  6  8  1  0
  8  9  1  0
  9 10  2  0
 10 11  1  0
 11 12  2  0
  9 13  1  0
 13 14  2  0
 14 15  1  0
 15 16  2  0
 16 17  1  0
 17 18  2  0
 17 19  1  0
 19 20  1  0
 20 21  1  0
 21 22  2  0
 22 23  1  0
 23 24  2  0
 24 25  1  0
 25 26  2  0
 19 27  1  0
 27 28  2  0
 27 29  1  0
 29 30  2  0
 12  2  1  0
 11  5  1  0
 30 13  1  0
 29 16  1  0
 26 21  1  0
  3 31  1  0
  4 32  1  0
 12 33  1  0
 14 34  1  0
 15 35  1  0
 20 36  1  0
 20 37  1  0
 22 38  1  0
 23 39  1  0
 24 40  1  0
 26 41  1  0
 30 42  1  0
M  END
>  <Unnamed: 0>  (159) 
942

>  <ID>  (159) 
TRAIN_0942

>  <Canonical_Smiles>  (159) 
Clc1ccc2C(=O)OC(=Nc2c1)c3ccc4C(=O)N(Cc5cccnc5)C(=O)c4c3

>  <Inhibition>  (159) 
50.641627

>  <TDC_conf_true_inhibitor>  (159) 
1

>  <TDC_conf_non_inhibitor>  (159) 
0

>  <split>  (159) 
1

$$$$
159
     RDKit          3D

 52 55  0  0  0  0  0  0  0  0999 V2000
   -4.6795    1.5436   -1.2415 C   0  0  0  0  0  0  0  0  0  0  0  0
   -4.5286    0.2668   -0.3810 C   0  0  0  0  0  0  0  0  0  0  0  0
   -5.5946    0.2848    0.7279 C   0  0  0  0  0  0  0  0  0  0  0  0
   -4.8158   -0.9186   -1.3326 C   0  0  0  0  0  0  0  0  0  0  0  0
   -3.1717    0.1691    0.2300 N   0  0  0  0  0  0  0  0  0  0  0  0
   -2.6319   -1.0077    0.6919 C   0  0  0  0  0  0  0  0  0  0  0  0
   -3.1247   -2.1262    0.6572 O   0  0  0  0  0  0  0  0  0  0  0  0
   -1.2959   -0.7453    1.3323 C   0  0  0  0  0  0  0  0  0  0  0  0
   -0.1027   -1.3174    0.5248 C   0  0  0  0  0  0  0  0  0  0  0  0
   -0.0828   -0.6350   -0.8345 C   0  0  0  0  0  0  0  0  0  0  0  0
   -0.0086    0.7041   -0.7849 C   0  0  0  0  0  0  0  0  0  0  0  0
    0.0412    1.2825    0.6210 C   0  0  0  0  0  0  0  0  0  0  0  0
    1.2589    0.6521    1.3455 C   0  0  0  0  0  0  0  0  0  0  0  0
    1.1741   -0.8801    1.2888 C   0  0  0  0  0  0  0  0  0  0  0  0
    2.4538   -1.2859    0.6081 C   0  0  0  0  0  0  0  0  0  0  0  0
    2.6505   -2.4237    0.2065 O   0  0  0  0  0  0  0  0  0  0  0  0
    3.2925   -0.1992    0.5115 N   0  0  0  0  0  0  0  0  0  0  0  0
    2.5783    0.9633    0.6913 C   0  0  0  0  0  0  0  0  0  0  0  0
    2.9009    2.0989    0.3738 O   0  0  0  0  0  0  0  0  0  0  0  0
    4.6034   -0.2454   -0.1999 C   0  0  0  0  0  0  0  0  0  0  0  0
    5.5247    0.9245    0.2202 C   0  0  0  0  0  0  0  0  0  0  0  0
    4.3724   -0.1764   -1.7198 C   0  0  0  0  0  0  0  0  0  0  0  0
    5.3884   -1.5375    0.1291 C   0  0  0  0  0  0  0  0  0  0  0  0
   -1.2111    0.7875    1.3890 C   0  0  0  0  0  0  0  0  0  0  0  0
   -2.5073    1.2420    0.7751 C   0  0  0  0  0  0  0  0  0  0  0  0
   -2.8738    2.4075    0.8249 O   0  0  0  0  0  0  0  0  0  0  0  0
   -3.8508    1.6379   -1.9524 H   0  0  0  0  0  0  0  0  0  0  0  0
   -5.6137    1.5289   -1.8155 H   0  0  0  0  0  0  0  0  0  0  0  0
   -4.7134    2.4544   -0.6367 H   0  0  0  0  0  0  0  0  0  0  0  0
   -5.4513    1.1360    1.4030 H   0  0  0  0  0  0  0  0  0  0  0  0
   -6.6042    0.3562    0.3082 H   0  0  0  0  0  0  0  0  0  0  0  0
   -5.5488   -0.6244    1.3378 H   0  0  0  0  0  0  0  0  0  0  0  0
   -3.9996   -1.0510   -2.0519 H   0  0  0  0  0  0  0  0  0  0  0  0
   -4.9523   -1.8622   -0.7965 H   0  0  0  0  0  0  0  0  0  0  0  0
   -5.7403   -0.7587   -1.9001 H   0  0  0  0  0  0  0  0  0  0  0  0
   -1.3154   -1.1593    2.3481 H   0  0  0  0  0  0  0  0  0  0  0  0
   -0.1666   -2.4038    0.4073 H   0  0  0  0  0  0  0  0  0  0  0  0
   -0.1176   -1.2032   -1.7583 H   0  0  0  0  0  0  0  0  0  0  0  0
    0.0231    1.3392   -1.6642 H   0  0  0  0  0  0  0  0  0  0  0  0
    0.0979    2.3750    0.5841 H   0  0  0  0  0  0  0  0  0  0  0  0
    1.3084    0.9946    2.3866 H   0  0  0  0  0  0  0  0  0  0  0  0
    1.1813   -1.3018    2.3016 H   0  0  0  0  0  0  0  0  0  0  0  0
    5.1761    1.8896   -0.1581 H   0  0  0  0  0  0  0  0  0  0  0  0
    6.5388    0.7949   -0.1764 H   0  0  0  0  0  0  0  0  0  0  0  0
    5.5981    0.9937    1.3115 H   0  0  0  0  0  0  0  0  0  0  0  0
    3.8537    0.7468   -2.0018 H   0  0  0  0  0  0  0  0  0  0  0  0
    5.3206   -0.2086   -2.2679 H   0  0  0  0  0  0  0  0  0  0  0  0
    3.7562   -1.0134   -2.0669 H   0  0  0  0  0  0  0  0  0  0  0  0
    6.4122   -1.4916   -0.2610 H   0  0  0  0  0  0  0  0  0  0  0  0
    4.9371   -2.4278   -0.3179 H   0  0  0  0  0  0  0  0  0  0  0  0
    5.4492   -1.6946    1.2120 H   0  0  0  0  0  0  0  0  0  0  0  0
   -1.1889    1.1251    2.4326 H   0  0  0  0  0  0  0  0  0  0  0  0
  1  2  1  0
  2  3  1  0
  2  4  1  0
  2  5  1  0
  5  6  1  0
  6  7  2  0
  6  8  1  0
  8  9  1  0
  9 10  1  0
 10 11  2  0
 11 12  1  0
 12 13  1  0
 13 14  1  0
 14 15  1  0
 15 16  2  0
 15 17  1  0
 17 18  1  0
 18 19  2  0
 17 20  1  0
 20 21  1  0
 20 22  1  0
 20 23  1  0
 12 24  1  0
 24 25  1  0
 25 26  2  0
 25  5  1  0
 24  8  1  0
 14  9  1  0
 18 13  1  0
  1 27  1  0
  1 28  1  0
  1 29  1  0
  3 30  1  0
  3 31  1  0
  3 32  1  0
  4 33  1  0
  4 34  1  0
  4 35  1  0
  8 36  1  0
  9 37  1  0
 10 38  1  0
 11 39  1  0
 12 40  1  0
 13 41  1  0
 14 42  1  0
 21 43  1  0
 21 44  1  0
 21 45  1  0
 22 46  1  0
 22 47  1  0
 22 48  1  0
 23 49  1  0
 23 50  1  0
 23 51  1  0
 24 52  1  0
M  END
>  <Unnamed: 0>  (160) 
943

>  <ID>  (160) 
TRAIN_0943

>  <Canonical_Smiles>  (160) 
CC(C)(C)N1C(=O)C2C3C=CC(C4C3C(=O)N(C4=O)C(C)(C)C)C2C1=O

>  <Inhibition>  (160) 
33.912392

>  <TDC_conf_true_inhibitor>  (160) 
0

>  <TDC_conf_non_inhibitor>  (160) 
1

>  <split>  (160) 
1

$$$$
160
     RDKit          3D

 34 35  0  0  0  0  0  0  0  0999 V2000
    4.1327   -2.0844    0.9172 C   0  0  0  0  0  0  0  0  0  0  0  0
    4.3507   -0.9401   -0.0548 C   0  0  0  0  0  0  0  0  0  0  0  0
    3.4051    0.1092    0.1966 O   0  0  0  0  0  0  0  0  0  0  0  0
    2.2006   -0.0122   -0.4260 C   0  0  0  0  0  0  0  0  0  0  0  0
    1.8739   -0.9374   -1.1538 O   0  0  0  0  0  0  0  0  0  0  0  0
    1.3415    1.1641   -0.0704 C   0  0  0  0  0  0  0  0  0  0  0  0
    2.0219    2.3649    0.0882 N   0  0  0  0  0  0  0  0  0  0  0  0
    1.4323    3.4393    0.3596 N   0  0  0  0  0  0  0  0  0  0  0  0
    0.0860    3.4466    0.5301 C   0  0  0  0  0  0  0  0  0  0  0  0
   -0.7957    4.4526    0.8463 C   0  0  0  0  0  0  0  0  0  0  0  0
   -2.0439    3.8261    0.9005 C   0  0  0  0  0  0  0  0  0  0  0  0
   -1.9761    2.5227    0.6382 N   0  0  0  0  0  0  0  0  0  0  0  0
   -0.6545    2.2732    0.3924 N   0  0  0  0  0  0  0  0  0  0  0  0
   -0.0065    1.0618    0.0664 C   0  0  0  0  0  0  0  0  0  0  0  0
   -0.7347   -0.2078   -0.0426 C   0  0  0  0  0  0  0  0  0  0  0  0
   -2.0297   -0.3815   -0.3488 C   0  0  0  0  0  0  0  0  0  0  0  0
   -2.7411   -1.5712   -0.4769 N   0  0  0  0  0  0  0  0  0  0  0  0
   -2.0789   -2.8743   -0.5524 C   0  0  0  0  0  0  0  0  0  0  0  0
   -4.1141   -1.5521   -0.9867 C   0  0  0  0  0  0  0  0  0  0  0  0
    3.1403   -2.5274    0.7869 H   0  0  0  0  0  0  0  0  0  0  0  0
    4.1884   -1.7267    1.9506 H   0  0  0  0  0  0  0  0  0  0  0  0
    4.8852   -2.8647    0.7727 H   0  0  0  0  0  0  0  0  0  0  0  0
    5.3483   -0.5145    0.0953 H   0  0  0  0  0  0  0  0  0  0  0  0
    4.2997   -1.2816   -1.0950 H   0  0  0  0  0  0  0  0  0  0  0  0
   -0.5561    5.4911    1.0205 H   0  0  0  0  0  0  0  0  0  0  0  0
   -3.0088    4.2638    1.1248 H   0  0  0  0  0  0  0  0  0  0  0  0
   -0.1495   -1.1062    0.1321 H   0  0  0  0  0  0  0  0  0  0  0  0
   -2.6647    0.4809   -0.5432 H   0  0  0  0  0  0  0  0  0  0  0  0
   -1.4845   -2.9472   -1.4693 H   0  0  0  0  0  0  0  0  0  0  0  0
   -1.4238   -3.0291    0.3113 H   0  0  0  0  0  0  0  0  0  0  0  0
   -2.8038   -3.6956   -0.5518 H   0  0  0  0  0  0  0  0  0  0  0  0
   -4.6721   -2.4309   -0.6464 H   0  0  0  0  0  0  0  0  0  0  0  0
   -4.1105   -1.5416   -2.0815 H   0  0  0  0  0  0  0  0  0  0  0  0
   -4.6574   -0.6698   -0.6304 H   0  0  0  0  0  0  0  0  0  0  0  0
  1  2  1  0
  2  3  1  0
  3  4  1  0
  4  5  2  0
  4  6  1  0
  6  7  1  0
  7  8  2  0
  8  9  1  0
  9 10  2  0
 10 11  1  0
 11 12  2  0
 12 13  1  0
 13 14  1  0
 14 15  1  0
 15 16  2  0
 16 17  1  0
 17 18  1  0
 17 19  1  0
 14  6  2  0
 13  9  1  0
  1 20  1  0
  1 21  1  0
  1 22  1  0
  2 23  1  0
  2 24  1  0
 10 25  1  0
 11 26  1  0
 15 27  1  0
 16 28  1  0
 18 29  1  0
 18 30  1  0
 18 31  1  0
 19 32  1  0
 19 33  1  0
 19 34  1  0
M  END
>  <Unnamed: 0>  (161) 
945

>  <ID>  (161) 
TRAIN_0945

>  <Canonical_Smiles>  (161) 
CCOC(=O)c1nnc2ccnn2c1\C=C\N(C)C

>  <Inhibition>  (161) 
35.723568

>  <TDC_conf_true_inhibitor>  (161) 
0

>  <TDC_conf_non_inhibitor>  (161) 
1

>  <split>  (161) 
1

$$$$
161
     RDKit          3D

 55 59  0  0  0  0  0  0  0  0999 V2000
    6.1239    2.0194    0.9801 C   0  0  0  0  0  0  0  0  0  0  0  0
    4.7679    1.7419    1.4455 N   0  0  0  0  0  0  0  0  0  0  0  0
    3.7729    2.4116    0.5780 C   0  0  0  0  0  0  0  0  0  0  0  0
    2.3862    1.7315    0.5722 C   0  0  0  0  0  0  0  0  0  0  0  0
    2.5072    0.3544    0.0831 N   0  0  0  0  0  0  0  0  0  0  0  0
    3.7579   -0.3546    0.3680 C   0  0  0  0  0  0  0  0  0  0  0  0
    4.5085    0.2911    1.5569 C   0  0  0  0  0  0  0  0  0  0  0  0
    1.3485   -0.3633   -0.1218 C   0  0  0  0  0  0  0  0  0  0  0  0
    0.1847    0.2711   -0.0401 N   0  0  0  0  0  0  0  0  0  0  0  0
   -0.9413   -0.4125   -0.2597 C   0  0  0  0  0  0  0  0  0  0  0  0
   -0.9183   -1.7102   -0.5608 N   0  0  0  0  0  0  0  0  0  0  0  0
    0.2819   -2.2772   -0.6355 C   0  0  0  0  0  0  0  0  0  0  0  0
    1.4366   -1.6496   -0.4253 N   0  0  0  0  0  0  0  0  0  0  0  0
    0.3324   -3.6580   -0.9542 N   0  0  0  0  0  0  0  0  0  0  0  0
    1.4557   -4.4461   -1.0786 C   0  0  0  0  0  0  0  0  0  0  0  0
    0.9930   -5.7034   -1.3863 C   0  0  0  0  0  0  0  0  0  0  0  0
   -0.3745   -5.7161   -1.4556 N   0  0  0  0  0  0  0  0  0  0  0  0
   -0.7428   -4.4792   -1.1963 C   0  0  0  0  0  0  0  0  0  0  0  0
   -2.2100    0.2658   -0.1686 N   0  0  0  0  0  0  0  0  0  0  0  0
   -2.2739    1.7060   -0.2323 C   0  0  0  0  0  0  0  0  0  0  0  0
   -1.5015    2.4384   -1.1509 C   0  0  0  0  0  0  0  0  0  0  0  0
   -1.5815    3.8328   -1.2111 C   0  0  0  0  0  0  0  0  0  0  0  0
   -2.4372    4.5209   -0.3550 C   0  0  0  0  0  0  0  0  0  0  0  0
   -3.2143    3.8169    0.5609 C   0  0  0  0  0  0  0  0  0  0  0  0
   -3.1346    2.4229    0.6204 C   0  0  0  0  0  0  0  0  0  0  0  0
   -3.4275   -0.4941   -0.0218 C   0  0  0  0  0  0  0  0  0  0  0  0
   -3.5149   -1.5765    0.8716 C   0  0  0  0  0  0  0  0  0  0  0  0
   -4.7010   -2.3031    1.0089 C   0  0  0  0  0  0  0  0  0  0  0  0
   -5.8220   -1.9582    0.2583 C   0  0  0  0  0  0  0  0  0  0  0  0
   -5.7601   -0.8864   -0.6284 C   0  0  0  0  0  0  0  0  0  0  0  0
   -4.5744   -0.1599   -0.7659 C   0  0  0  0  0  0  0  0  0  0  0  0
    6.3186    1.5881   -0.0084 H   0  0  0  0  0  0  0  0  0  0  0  0
    6.2996    3.0997    0.9279 H   0  0  0  0  0  0  0  0  0  0  0  0
    6.8609    1.6158    1.6831 H   0  0  0  0  0  0  0  0  0  0  0  0
    4.1309    2.4392   -0.4608 H   0  0  0  0  0  0  0  0  0  0  0  0
    3.6635    3.4507    0.9090 H   0  0  0  0  0  0  0  0  0  0  0  0
    1.9615    1.7428    1.5842 H   0  0  0  0  0  0  0  0  0  0  0  0
    1.7272    2.3164   -0.0813 H   0  0  0  0  0  0  0  0  0  0  0  0
    4.3902   -0.3239   -0.5274 H   0  0  0  0  0  0  0  0  0  0  0  0
    3.5980   -1.4105    0.6166 H   0  0  0  0  0  0  0  0  0  0  0  0
    3.8930    0.1506    2.4556 H   0  0  0  0  0  0  0  0  0  0  0  0
    5.4353   -0.2634    1.7507 H   0  0  0  0  0  0  0  0  0  0  0  0
    2.4517   -4.0501   -0.9411 H   0  0  0  0  0  0  0  0  0  0  0  0
    1.5732   -6.6005   -1.5618 H   0  0  0  0  0  0  0  0  0  0  0  0
   -1.7641   -4.1194   -1.1686 H   0  0  0  0  0  0  0  0  0  0  0  0
   -0.8372    1.9269   -1.8432 H   0  0  0  0  0  0  0  0  0  0  0  0
   -0.9768    4.3785   -1.9307 H   0  0  0  0  0  0  0  0  0  0  0  0
   -2.4991    5.6050   -0.4019 H   0  0  0  0  0  0  0  0  0  0  0  0
   -3.8818    4.3499    1.2329 H   0  0  0  0  0  0  0  0  0  0  0  0
   -3.7414    1.8964    1.3538 H   0  0  0  0  0  0  0  0  0  0  0  0
   -2.6614   -1.8550    1.4845 H   0  0  0  0  0  0  0  0  0  0  0  0
   -4.7479   -3.1368    1.7049 H   0  0  0  0  0  0  0  0  0  0  0  0
   -6.7435   -2.5248    0.3642 H   0  0  0  0  0  0  0  0  0  0  0  0
   -6.6323   -0.6160   -1.2179 H   0  0  0  0  0  0  0  0  0  0  0  0
   -4.5451    0.6639   -1.4757 H   0  0  0  0  0  0  0  0  0  0  0  0
  1  2  1  0
  2  3  1  0
  3  4  1  0
  4  5  1  0
  5  6  1  0
  6  7  1  0
  5  8  1  0
  8  9  2  0
  9 10  1  0
 10 11  2  0
 11 12  1  0
 12 13  2  0
 12 14  1  0
 14 15  1  0
 15 16  2  0
 16 17  1  0
 17 18  2  0
 10 19  1  0
 19 20  1  0
 20 21  2  0
 21 22  1  0
 22 23  2  0
 23 24  1  0
 24 25  2  0
 19 26  1  0
 26 27  2  0
 27 28  1  0
 28 29  2  0
 29 30  1  0
 30 31  2  0
  7  2  1  0
 13  8  1  0
 18 14  1  0
 25 20  1  0
 31 26  1  0
  1 32  1  0
  1 33  1  0
  1 34  1  0
  3 35  1  0
  3 36  1  0
  4 37  1  0
  4 38  1  0
  6 39  1  0
  6 40  1  0
  7 41  1  0
  7 42  1  0
 15 43  1  0
 16 44  1  0
 18 45  1  0
 21 46  1  0
 22 47  1  0
 23 48  1  0
 24 49  1  0
 25 50  1  0
 27 51  1  0
 28 52  1  0
 29 53  1  0
 30 54  1  0
 31 55  1  0
M  END
>  <Unnamed: 0>  (162) 
950

>  <ID>  (162) 
TRAIN_0950

>  <Canonical_Smiles>  (162) 
CN1CCN(CC1)c2nc(nc(n2)n3ccnc3)N(c4ccccc4)c5ccccc5

>  <Inhibition>  (162) 
76.157817

>  <TDC_conf_true_inhibitor>  (162) 
1

>  <TDC_conf_non_inhibitor>  (162) 
0

>  <split>  (162) 
1

$$$$
162
     RDKit          3D

 42 46  0  0  0  0  0  0  0  0999 V2000
   -5.2036    0.2057   -2.4135 C   0  0  0  0  0  0  0  0  0  0  0  0
   -3.7801    0.6662   -2.4344 C   0  0  0  0  0  0  0  0  0  0  0  0
   -3.2729    1.7213   -3.6989 S   0  0  0  0  0  0  0  0  0  0  0  0
   -1.6672    1.7682   -3.1282 C   0  0  0  0  0  0  0  0  0  0  0  0
   -0.6909    2.4952   -3.7690 N   0  0  0  0  0  0  0  0  0  0  0  0
    0.5090    2.4564   -3.2444 C   0  0  0  0  0  0  0  0  0  0  0  0
    0.8025    1.7211   -2.0966 N   0  0  0  0  0  0  0  0  0  0  0  0
    2.0158    1.6427   -1.5228 N   0  0  0  0  0  0  0  0  0  0  0  0
    1.7476    0.8209   -0.4853 C   0  0  0  0  0  0  0  0  0  0  0  0
    0.4340    0.3958   -0.3953 N   0  0  0  0  0  0  0  0  0  0  0  0
   -0.1207    0.9843   -1.4213 C   0  0  0  0  0  0  0  0  0  0  0  0
   -1.5486    0.9930   -1.9873 C   0  0  0  0  0  0  0  0  0  0  0  0
   -2.7454    0.3703   -1.5546 C   0  0  0  0  0  0  0  0  0  0  0  0
   -2.9322   -0.4818   -0.3880 C   0  0  0  0  0  0  0  0  0  0  0  0
   -3.8056   -0.0984    0.6383 C   0  0  0  0  0  0  0  0  0  0  0  0
   -3.9839   -0.9181    1.7546 C   0  0  0  0  0  0  0  0  0  0  0  0
   -3.2865   -2.1209    1.8549 C   0  0  0  0  0  0  0  0  0  0  0  0
   -2.4083   -2.5039    0.8421 C   0  0  0  0  0  0  0  0  0  0  0  0
   -2.2305   -1.6872   -0.2766 C   0  0  0  0  0  0  0  0  0  0  0  0
    2.7576    0.3820    0.4992 C   0  0  0  0  0  0  0  0  0  0  0  0
    4.1068    0.8022    0.4839 C   0  0  0  0  0  0  0  0  0  0  0  0
    4.6985    0.1678    1.5588 C   0  0  0  0  0  0  0  0  0  0  0  0
    3.7058   -0.5694    2.1417 N   0  0  0  0  0  0  0  0  0  0  0  0
    3.8055   -1.4213    3.3065 C   0  0  0  0  0  0  0  0  0  0  0  0
    2.5218   -0.4624    1.5129 N   0  0  0  0  0  0  0  0  0  0  0  0
    6.0740    0.1882    2.0798 C   0  0  0  0  0  0  0  0  0  0  0  0
    6.5967   -1.0604    2.1633 F   0  0  0  0  0  0  0  0  0  0  0  0
    6.9086    0.9168    1.2993 F   0  0  0  0  0  0  0  0  0  0  0  0
    6.1285    0.7201    3.3256 F   0  0  0  0  0  0  0  0  0  0  0  0
   -5.6694    0.2682   -3.4028 H   0  0  0  0  0  0  0  0  0  0  0  0
   -5.2717   -0.8383   -2.0908 H   0  0  0  0  0  0  0  0  0  0  0  0
   -5.7890    0.8212   -1.7228 H   0  0  0  0  0  0  0  0  0  0  0  0
    1.3318    3.0187   -3.7137 H   0  0  0  0  0  0  0  0  0  0  0  0
   -4.3440    0.8444    0.5811 H   0  0  0  0  0  0  0  0  0  0  0  0
   -4.6595   -0.6138    2.5495 H   0  0  0  0  0  0  0  0  0  0  0  0
   -3.4182   -2.7553    2.7274 H   0  0  0  0  0  0  0  0  0  0  0  0
   -1.8518   -3.4336    0.9262 H   0  0  0  0  0  0  0  0  0  0  0  0
   -1.5328   -1.9948   -1.0516 H   0  0  0  0  0  0  0  0  0  0  0  0
    4.5821    1.4761   -0.2168 H   0  0  0  0  0  0  0  0  0  0  0  0
    4.2478   -0.8469    4.1236 H   0  0  0  0  0  0  0  0  0  0  0  0
    2.8074   -1.7607    3.5962 H   0  0  0  0  0  0  0  0  0  0  0  0
    4.4310   -2.2796    3.0499 H   0  0  0  0  0  0  0  0  0  0  0  0
  1  2  1  0
  2  3  1  0
  3  4  1  0
  4  5  1  0
  5  6  2  0
  6  7  1  0
  7  8  1  0
  8  9  2  0
  9 10  1  0
 10 11  2  0
 11 12  1  0
 12 13  1  0
 13 14  1  0
 14 15  2  0
 15 16  1  0
 16 17  2  0
 17 18  1  0
 18 19  2  0
  9 20  1  0
 20 21  1  0
 21 22  2  0
 22 23  1  0
 23 24  1  0
 23 25  1  0
 22 26  1  0
 26 27  1  0
 26 28  1  0
 26 29  1  0
 13  2  2  0
 12  4  2  0
 11  7  1  0
 19 14  1  0
 25 20  2  0
  1 30  1  0
  1 31  1  0
  1 32  1  0
  6 33  1  0
 15 34  1  0
 16 35  1  0
 17 36  1  0
 18 37  1  0
 19 38  1  0
 21 39  1  0
 24 40  1  0
 24 41  1  0
 24 42  1  0
M  END
>  <Unnamed: 0>  (163) 
953

>  <ID>  (163) 
TRAIN_0953

>  <Canonical_Smiles>  (163) 
Cc1sc2ncn3nc(nc3c2c1c4ccccc4)c5cc(n(C)n5)C(F)(F)F

>  <Inhibition>  (163) 
47.196152

>  <TDC_conf_true_inhibitor>  (163) 
0

>  <TDC_conf_non_inhibitor>  (163) 
1

>  <split>  (163) 
1

$$$$
163
     RDKit          3D

 52 55  0  0  0  0  0  0  0  0999 V2000
   -5.2307    3.1389    0.4907 C   0  0  0  0  0  0  0  0  0  0  0  0
   -4.6815    2.6792   -0.8524 C   0  0  0  0  0  0  0  0  0  0  0  0
   -3.8091    1.5009   -0.6946 N   0  0  0  0  0  0  0  0  0  0  0  0
   -2.4401    1.6583   -0.5227 C   0  0  0  0  0  0  0  0  0  0  0  0
   -1.5297    0.6879   -0.3551 C   0  0  0  0  0  0  0  0  0  0  0  0
   -0.0898    1.0671   -0.1888 C   0  0  0  0  0  0  0  0  0  0  0  0
    0.2398    2.2488   -0.2168 O   0  0  0  0  0  0  0  0  0  0  0  0
    0.7440   -0.0072   -0.0094 N   0  0  0  0  0  0  0  0  0  0  0  0
    2.0909    0.1107    0.1673 C   0  0  0  0  0  0  0  0  0  0  0  0
    2.8411    1.1749    0.1858 N   0  0  0  0  0  0  0  0  0  0  0  0
    4.1850    0.8301    0.3889 C   0  0  0  0  0  0  0  0  0  0  0  0
    5.2012    1.8986    0.3637 C   0  0  0  0  0  0  0  0  0  0  0  0
    4.9324    3.0944    0.3927 O   0  0  0  0  0  0  0  0  0  0  0  0
    6.4829    1.4290    0.2705 O   0  0  0  0  0  0  0  0  0  0  0  0
    7.4789    2.4510    0.2125 C   0  0  0  0  0  0  0  0  0  0  0  0
    4.3901   -0.5378    0.5979 C   0  0  0  0  0  0  0  0  0  0  0  0
    2.8876   -1.3715    0.3842 S   0  0  0  0  0  0  0  0  0  0  0  0
    5.6526   -1.3107    0.9239 C   0  0  0  0  0  0  0  0  0  0  0  0
    6.2742   -1.9052   -0.3407 C   0  0  0  0  0  0  0  0  0  0  0  0
    5.4465   -2.3974    1.9855 C   0  0  0  0  0  0  0  0  0  0  0  0
   -2.0382   -0.7027   -0.3489 C   0  0  0  0  0  0  0  0  0  0  0  0
   -1.2697   -1.6556   -0.2318 O   0  0  0  0  0  0  0  0  0  0  0  0
   -3.5003   -0.9186   -0.4873 C   0  0  0  0  0  0  0  0  0  0  0  0
   -3.9830   -2.2379   -0.4378 C   0  0  0  0  0  0  0  0  0  0  0  0
   -5.3378   -2.4230   -0.5629 C   0  0  0  0  0  0  0  0  0  0  0  0
   -5.9877   -3.6161   -0.5336 O   0  0  0  0  0  0  0  0  0  0  0  0
   -7.3531   -3.1876   -0.7193 C   0  0  0  0  0  0  0  0  0  0  0  0
   -7.4908   -1.7548   -0.8301 O   0  0  0  0  0  0  0  0  0  0  0  0
   -6.1917   -1.3620   -0.7302 C   0  0  0  0  0  0  0  0  0  0  0  0
   -5.7424   -0.0554   -0.7800 C   0  0  0  0  0  0  0  0  0  0  0  0
   -4.3646    0.2014   -0.6582 C   0  0  0  0  0  0  0  0  0  0  0  0
   -5.8505    2.3692    0.9603 H   0  0  0  0  0  0  0  0  0  0  0  0
   -5.8457    4.0343    0.3586 H   0  0  0  0  0  0  0  0  0  0  0  0
   -4.4187    3.3819    1.1845 H   0  0  0  0  0  0  0  0  0  0  0  0
   -5.4917    2.4963   -1.5668 H   0  0  0  0  0  0  0  0  0  0  0  0
   -4.1071    3.5051   -1.2920 H   0  0  0  0  0  0  0  0  0  0  0  0
   -2.1238    2.7014   -0.5341 H   0  0  0  0  0  0  0  0  0  0  0  0
    0.3630   -0.9507   -0.0114 H   0  0  0  0  0  0  0  0  0  0  0  0
    7.3712    3.0352   -0.7063 H   0  0  0  0  0  0  0  0  0  0  0  0
    7.4255    3.0965    1.0947 H   0  0  0  0  0  0  0  0  0  0  0  0
    8.4583    1.9650    0.2016 H   0  0  0  0  0  0  0  0  0  0  0  0
    6.3804   -0.6217    1.3652 H   0  0  0  0  0  0  0  0  0  0  0  0
    5.6053   -2.6302   -0.8185 H   0  0  0  0  0  0  0  0  0  0  0  0
    6.4974   -1.1250   -1.0770 H   0  0  0  0  0  0  0  0  0  0  0  0
    7.2112   -2.4186   -0.1042 H   0  0  0  0  0  0  0  0  0  0  0  0
    4.9766   -1.9851    2.8854 H   0  0  0  0  0  0  0  0  0  0  0  0
    6.4107   -2.8269    2.2797 H   0  0  0  0  0  0  0  0  0  0  0  0
    4.8222   -3.2208    1.6212 H   0  0  0  0  0  0  0  0  0  0  0  0
   -3.3183   -3.0842   -0.3017 H   0  0  0  0  0  0  0  0  0  0  0  0
   -7.9490   -3.5303    0.1343 H   0  0  0  0  0  0  0  0  0  0  0  0
   -7.7450   -3.6485   -1.6316 H   0  0  0  0  0  0  0  0  0  0  0  0
   -6.4789    0.7296   -0.9045 H   0  0  0  0  0  0  0  0  0  0  0  0
  1  2  1  0
  2  3  1  0
  3  4  1  0
  4  5  2  0
  5  6  1  0
  6  7  2  0
  6  8  1  0
  8  9  1  0
  9 10  2  0
 10 11  1  0
 11 12  1  0
 12 13  2  0
 12 14  1  0
 14 15  1  0
 11 16  2  0
 16 17  1  0
 16 18  1  0
 18 19  1  0
 18 20  1  0
  5 21  1  0
 21 22  2  0
 21 23  1  0
 23 24  2  0
 24 25  1  0
 25 26  1  0
 26 27  1  0
 27 28  1  0
 28 29  1  0
 29 30  1  0
 30 31  2  0
 31  3  1  0
 17  9  1  0
 31 23  1  0
 29 25  2  0
  1 32  1  0
  1 33  1  0
  1 34  1  0
  2 35  1  0
  2 36  1  0
  4 37  1  0
  8 38  1  0
 15 39  1  0
 15 40  1  0
 15 41  1  0
 18 42  1  0
 19 43  1  0
 19 44  1  0
 19 45  1  0
 20 46  1  0
 20 47  1  0
 20 48  1  0
 24 49  1  0
 27 50  1  0
 27 51  1  0
 30 52  1  0
M  END
>  <Unnamed: 0>  (164) 
955

>  <ID>  (164) 
TRAIN_0955

>  <Canonical_Smiles>  (164) 
CCN1C=C(C(=O)Nc2nc(C(=O)OC)c(s2)C(C)C)C(=O)c3cc4OCOc4cc13

>  <Inhibition>  (164) 
50.647944

>  <TDC_conf_true_inhibitor>  (164) 
1

>  <TDC_conf_non_inhibitor>  (164) 
0

>  <split>  (164) 
1

$$$$
164
     RDKit          3D

 37 40  0  0  0  0  0  0  0  0999 V2000
   -1.0372   -1.4466   -0.0137 O   0  0  0  0  0  0  0  0  0  0  0  0
   -0.5141   -0.1989   -0.1329 C   0  0  0  0  0  0  0  0  0  0  0  0
    0.8202   -0.2143   -0.1040 N   0  0  0  0  0  0  0  0  0  0  0  0
    1.4178    0.9709   -0.2127 C   0  0  0  0  0  0  0  0  0  0  0  0
    2.8011    1.1015   -0.1966 N   0  0  0  0  0  0  0  0  0  0  0  0
    3.8812    0.2130   -0.0909 C   0  0  0  0  0  0  0  0  0  0  0  0
    3.7239   -1.1734    0.0298 C   0  0  0  0  0  0  0  0  0  0  0  0
    4.8315   -2.0241    0.1347 C   0  0  0  0  0  0  0  0  0  0  0  0
    6.1189   -1.4970    0.1207 C   0  0  0  0  0  0  0  0  0  0  0  0
    7.4745   -2.5471    0.2503 Cl  0  0  0  0  0  0  0  0  0  0  0  0
    6.3134   -0.1269    0.0028 C   0  0  0  0  0  0  0  0  0  0  0  0
    5.2028    0.7150   -0.1015 C   0  0  0  0  0  0  0  0  0  0  0  0
    5.4940    2.4179   -0.2463 Cl  0  0  0  0  0  0  0  0  0  0  0  0
    0.7467    2.1169   -0.3421 N   0  0  0  0  0  0  0  0  0  0  0  0
   -0.5797    2.1015   -0.3690 C   0  0  0  0  0  0  0  0  0  0  0  0
   -1.1757    3.2860   -0.5006 N   0  0  0  0  0  0  0  0  0  0  0  0
   -2.5206    3.3566   -0.5359 C   0  0  0  0  0  0  0  0  0  0  0  0
   -3.3418    2.2570   -0.4427 C   0  0  0  0  0  0  0  0  0  0  0  0
   -2.7478    1.0018   -0.3053 C   0  0  0  0  0  0  0  0  0  0  0  0
   -3.6217   -0.1718   -0.2067 C   0  0  0  0  0  0  0  0  0  0  0  0
   -4.1649   -0.5779    1.0172 C   0  0  0  0  0  0  0  0  0  0  0  0
   -5.0119   -1.6829    1.0711 C   0  0  0  0  0  0  0  0  0  0  0  0
   -5.2991   -2.3494   -0.1085 C   0  0  0  0  0  0  0  0  0  0  0  0
   -4.8051   -1.9905   -1.3119 N   0  0  0  0  0  0  0  0  0  0  0  0
   -3.9769   -0.9184   -1.3307 C   0  0  0  0  0  0  0  0  0  0  0  0
   -1.3188    0.9282   -0.2666 C   0  0  0  0  0  0  0  0  0  0  0  0
   -0.2308   -1.9882    0.0471 H   0  0  0  0  0  0  0  0  0  0  0  0
    3.0481    2.0814   -0.2886 H   0  0  0  0  0  0  0  0  0  0  0  0
    2.7377   -1.6259    0.0441 H   0  0  0  0  0  0  0  0  0  0  0  0
    4.6764   -3.0964    0.2265 H   0  0  0  0  0  0  0  0  0  0  0  0
    7.3183    0.2853   -0.0081 H   0  0  0  0  0  0  0  0  0  0  0  0
   -2.9289    4.3577   -0.6455 H   0  0  0  0  0  0  0  0  0  0  0  0
   -4.4206    2.3760   -0.4783 H   0  0  0  0  0  0  0  0  0  0  0  0
   -3.9264   -0.0410    1.9320 H   0  0  0  0  0  0  0  0  0  0  0  0
   -5.4366   -2.0160    2.0113 H   0  0  0  0  0  0  0  0  0  0  0  0
   -5.9540   -3.2160   -0.1167 H   0  0  0  0  0  0  0  0  0  0  0  0
   -3.5937   -0.6642   -2.3159 H   0  0  0  0  0  0  0  0  0  0  0  0
  1  2  1  0
  2  3  2  0
  3  4  1  0
  4  5  1  0
  5  6  1  0
  6  7  2  0
  7  8  1  0
  8  9  2  0
  9 10  1  0
  9 11  1  0
 11 12  2  0
 12 13  1  0
  4 14  2  0
 14 15  1  0
 15 16  2  0
 16 17  1  0
 17 18  2  0
 18 19  1  0
 19 20  1  0
 20 21  2  0
 21 22  1  0
 22 23  2  0
 23 24  1  0
 24 25  2  0
 19 26  2  0
 26  2  1  0
 12  6  1  0
 26 15  1  0
 25 20  1  0
  1 27  1  0
  5 28  1  0
  7 29  1  0
  8 30  1  0
 11 31  1  0
 17 32  1  0
 18 33  1  0
 21 34  1  0
 22 35  1  0
 23 36  1  0
 25 37  1  0
M  END
>  <Unnamed: 0>  (165) 
961

>  <ID>  (165) 
TRAIN_0961

>  <Canonical_Smiles>  (165) 
Oc1nc(Nc2ccc(Cl)cc2Cl)nc3nccc(c4cccnc4)c13

>  <Inhibition>  (165) 
42.02072

>  <TDC_conf_true_inhibitor>  (165) 
0

>  <TDC_conf_non_inhibitor>  (165) 
1

>  <split>  (165) 
1

$$$$
165
     RDKit          3D

 64 68  0  0  0  0  0  0  0  0999 V2000
   -0.9605   -1.9814   -2.2148 C   0  0  0  0  0  0  0  0  0  0  0  0
   -0.0465   -0.9832   -1.4933 C   0  0  0  0  0  0  0  0  0  0  0  0
    0.1499    0.3087   -2.2956 C   0  0  0  0  0  0  0  0  0  0  0  0
   -0.3867   -0.7643   -0.0581 N   0  0  0  0  0  0  0  0  0  0  0  0
    0.6138   -0.4349    0.8845 C   0  0  0  0  0  0  0  0  0  0  0  0
    0.4083   -0.0156    2.0228 O   0  0  0  0  0  0  0  0  0  0  0  0
    2.0358   -0.5249    0.4982 C   0  0  0  0  0  0  0  0  0  0  0  0
    2.6781    0.6819    0.2235 C   0  0  0  0  0  0  0  0  0  0  0  0
    4.0098    0.6509   -0.1490 C   0  0  0  0  0  0  0  0  0  0  0  0
    4.6861   -0.5227   -0.2415 N   0  0  0  0  0  0  0  0  0  0  0  0
    4.0748   -1.6808    0.0648 C   0  0  0  0  0  0  0  0  0  0  0  0
    4.8068   -2.8590   -0.0134 C   0  0  0  0  0  0  0  0  0  0  0  0
    4.2460   -4.1021    0.2892 C   0  0  0  0  0  0  0  0  0  0  0  0
    2.9176   -4.1787    0.6828 C   0  0  0  0  0  0  0  0  0  0  0  0
    2.1607   -3.0122    0.7688 C   0  0  0  0  0  0  0  0  0  0  0  0
    2.7271   -1.7515    0.4561 C   0  0  0  0  0  0  0  0  0  0  0  0
    4.7730    1.8683   -0.4981 C   0  0  0  0  0  0  0  0  0  0  0  0
    5.8155    1.8153   -1.4425 C   0  0  0  0  0  0  0  0  0  0  0  0
    6.5292    2.9607   -1.8091 C   0  0  0  0  0  0  0  0  0  0  0  0
    6.2193    4.1899   -1.2328 C   0  0  0  0  0  0  0  0  0  0  0  0
    5.2069    4.2702   -0.2812 C   0  0  0  0  0  0  0  0  0  0  0  0
    4.4945    3.1217    0.0827 C   0  0  0  0  0  0  0  0  0  0  0  0
   -1.7201   -0.6457    0.3409 C   0  0  0  0  0  0  0  0  0  0  0  0
   -2.3306   -1.0725    1.4651 C   0  0  0  0  0  0  0  0  0  0  0  0
   -1.7411   -1.9297    2.5446 C   0  0  0  0  0  0  0  0  0  0  0  0
   -3.6807   -0.7047    1.5230 N   0  0  0  0  0  0  0  0  0  0  0  0
   -4.7019   -1.5115    2.1830 C   0  0  0  0  0  0  0  0  0  0  0  0
   -4.0176   -0.1207    0.2647 N   0  0  0  0  0  0  0  0  0  0  0  0
   -2.8005    0.0672   -0.4222 C   0  0  0  0  0  0  0  0  0  0  0  0
   -2.6200    0.7272   -1.4361 O   0  0  0  0  0  0  0  0  0  0  0  0
   -4.9736    0.9318    0.3052 C   0  0  0  0  0  0  0  0  0  0  0  0
   -4.5913    2.2766    0.3703 C   0  0  0  0  0  0  0  0  0  0  0  0
   -5.5578    3.2844    0.3947 C   0  0  0  0  0  0  0  0  0  0  0  0
   -6.9106    2.9557    0.3414 C   0  0  0  0  0  0  0  0  0  0  0  0
   -7.3003    1.6203    0.2592 C   0  0  0  0  0  0  0  0  0  0  0  0
   -6.3347    0.6118    0.2417 C   0  0  0  0  0  0  0  0  0  0  0  0
   -1.9634   -1.5859   -2.3950 H   0  0  0  0  0  0  0  0  0  0  0  0
   -0.5369   -2.2442   -3.1911 H   0  0  0  0  0  0  0  0  0  0  0  0
   -1.0633   -2.9053   -1.6342 H   0  0  0  0  0  0  0  0  0  0  0  0
    0.9303   -1.4758   -1.5002 H   0  0  0  0  0  0  0  0  0  0  0  0
    0.9318    0.1637   -3.0475 H   0  0  0  0  0  0  0  0  0  0  0  0
   -0.7478    0.5999   -2.8437 H   0  0  0  0  0  0  0  0  0  0  0  0
    0.4482    1.1470   -1.6622 H   0  0  0  0  0  0  0  0  0  0  0  0
    2.1253    1.6140    0.2843 H   0  0  0  0  0  0  0  0  0  0  0  0
    5.8503   -2.8075   -0.3171 H   0  0  0  0  0  0  0  0  0  0  0  0
    4.8532   -5.0014    0.2200 H   0  0  0  0  0  0  0  0  0  0  0  0
    2.4711   -5.1392    0.9252 H   0  0  0  0  0  0  0  0  0  0  0  0
    1.1238   -3.0918    1.0848 H   0  0  0  0  0  0  0  0  0  0  0  0
    6.0747    0.8650   -1.9076 H   0  0  0  0  0  0  0  0  0  0  0  0
    7.3224    2.8900   -2.5482 H   0  0  0  0  0  0  0  0  0  0  0  0
    6.7712    5.0814   -1.5188 H   0  0  0  0  0  0  0  0  0  0  0  0
    4.9700    5.2257    0.1818 H   0  0  0  0  0  0  0  0  0  0  0  0
    3.7235    3.2213    0.8444 H   0  0  0  0  0  0  0  0  0  0  0  0
   -0.7343   -2.2801    2.3098 H   0  0  0  0  0  0  0  0  0  0  0  0
   -2.3430   -2.8339    2.6894 H   0  0  0  0  0  0  0  0  0  0  0  0
   -1.7027   -1.3817    3.4921 H   0  0  0  0  0  0  0  0  0  0  0  0
   -5.6314   -0.9543    2.3208 H   0  0  0  0  0  0  0  0  0  0  0  0
   -4.9143   -2.4200    1.6114 H   0  0  0  0  0  0  0  0  0  0  0  0
   -4.3793   -1.7974    3.1886 H   0  0  0  0  0  0  0  0  0  0  0  0
   -3.5414    2.5534    0.4128 H   0  0  0  0  0  0  0  0  0  0  0  0
   -5.2532    4.3263    0.4520 H   0  0  0  0  0  0  0  0  0  0  0  0
   -7.6598    3.7428    0.3555 H   0  0  0  0  0  0  0  0  0  0  0  0
   -8.3554    1.3652    0.1998 H   0  0  0  0  0  0  0  0  0  0  0  0
   -6.6485   -0.4239    0.1546 H   0  0  0  0  0  0  0  0  0  0  0  0
  1  2  1  0
  2  3  1  0
  2  4  1  0
  4  5  1  0
  5  6  2  0
  5  7  1  0
  7  8  2  0
  8  9  1  0
  9 10  2  0
 10 11  1  0
 11 12  2  0
 12 13  1  0
 13 14  2  0
 14 15  1  0
 15 16  2  0
  9 17  1  0
 17 18  2  0
 18 19  1  0
 19 20  2  0
 20 21  1  0
 21 22  2  0
  4 23  1  0
 23 24  2  0
 24 25  1  0
 24 26  1  0
 26 27  1  0
 26 28  1  0
 28 29  1  0
 29 30  2  0
 28 31  1  0
 31 32  2  0
 32 33  1  0
 33 34  2  0
 34 35  1  0
 35 36  2  0
 16  7  1  0
 16 11  1  0
 22 17  1  0
 29 23  1  0
 36 31  1  0
  1 37  1  0
  1 38  1  0
  1 39  1  0
  2 40  1  0
  3 41  1  0
  3 42  1  0
  3 43  1  0
  8 44  1  0
 12 45  1  0
 13 46  1  0
 14 47  1  0
 15 48  1  0
 18 49  1  0
 19 50  1  0
 20 51  1  0
 21 52  1  0
 22 53  1  0
 25 54  1  0
 25 55  1  0
 25 56  1  0
 27 57  1  0
 27 58  1  0
 27 59  1  0
 32 60  1  0
 33 61  1  0
 34 62  1  0
 35 63  1  0
 36 64  1  0
M  END
>  <Unnamed: 0>  (166) 
974

>  <ID>  (166) 
TRAIN_0974

>  <Canonical_Smiles>  (166) 
CC(C)N(C(=O)c1cc(nc2ccccc12)c3ccccc3)C4=C(C)N(C)N(C4=O)c5ccccc5

>  <Inhibition>  (166) 
55.2

>  <TDC_conf_true_inhibitor>  (166) 
1

>  <TDC_conf_non_inhibitor>  (166) 
0

>  <split>  (166) 
1

$$$$
166
     RDKit          3D

 39 41  0  0  0  0  0  0  0  0999 V2000
    6.0410    0.7596    1.3777 C   0  0  0  0  0  0  0  0  0  0  0  0
    5.4262   -0.5146    1.5092 O   0  0  0  0  0  0  0  0  0  0  0  0
    4.2281   -0.6929    0.8710 C   0  0  0  0  0  0  0  0  0  0  0  0
    3.6432   -1.9420    1.0778 C   0  0  0  0  0  0  0  0  0  0  0  0
    2.4151   -2.2599    0.4918 C   0  0  0  0  0  0  0  0  0  0  0  0
    1.7460   -1.3270   -0.3139 C   0  0  0  0  0  0  0  0  0  0  0  0
    2.3539   -0.0825   -0.5403 C   0  0  0  0  0  0  0  0  0  0  0  0
    1.7640    0.8291   -1.3781 O   0  0  0  0  0  0  0  0  0  0  0  0
    3.5843    0.2361    0.0511 C   0  0  0  0  0  0  0  0  0  0  0  0
    0.4444   -1.6820   -0.8765 C   0  0  0  0  0  0  0  0  0  0  0  0
    0.2396   -2.8796   -1.4615 N   0  0  0  0  0  0  0  0  0  0  0  0
   -1.0479   -2.8470   -1.8405 N   0  0  0  0  0  0  0  0  0  0  0  0
   -1.6992   -1.7030   -1.5004 C   0  0  0  0  0  0  0  0  0  0  0  0
   -0.7612   -0.9259   -0.8634 C   0  0  0  0  0  0  0  0  0  0  0  0
   -0.9421    0.2895   -0.2941 O   0  0  0  0  0  0  0  0  0  0  0  0
   -2.1289    0.9640   -0.4646 C   0  0  0  0  0  0  0  0  0  0  0  0
   -2.2899    1.7440   -1.6145 C   0  0  0  0  0  0  0  0  0  0  0  0
   -3.4671    2.4666   -1.7991 C   0  0  0  0  0  0  0  0  0  0  0  0
   -4.4685    2.4130   -0.8306 C   0  0  0  0  0  0  0  0  0  0  0  0
   -4.2971    1.6424    0.3291 C   0  0  0  0  0  0  0  0  0  0  0  0
   -3.1202    0.9124    0.5272 C   0  0  0  0  0  0  0  0  0  0  0  0
   -2.8459    0.1324    1.6206 O   0  0  0  0  0  0  0  0  0  0  0  0
   -3.8502    0.0347    2.6220 C   0  0  0  0  0  0  0  0  0  0  0  0
    6.9615    0.7506    1.9708 H   0  0  0  0  0  0  0  0  0  0  0  0
    6.3210    0.9511    0.3340 H   0  0  0  0  0  0  0  0  0  0  0  0
    5.3964    1.5563    1.7694 H   0  0  0  0  0  0  0  0  0  0  0  0
    4.1448   -2.6791    1.7006 H   0  0  0  0  0  0  0  0  0  0  0  0
    1.9724   -3.2376    0.6718 H   0  0  0  0  0  0  0  0  0  0  0  0
    2.2575    1.6632   -1.3431 H   0  0  0  0  0  0  0  0  0  0  0  0
    4.0305    1.2013   -0.1492 H   0  0  0  0  0  0  0  0  0  0  0  0
   -1.4238   -3.6592   -2.3174 H   0  0  0  0  0  0  0  0  0  0  0  0
   -2.7464   -1.5575   -1.7194 H   0  0  0  0  0  0  0  0  0  0  0  0
   -1.4970    1.7820   -2.3572 H   0  0  0  0  0  0  0  0  0  0  0  0
   -3.6018    3.0737   -2.6890 H   0  0  0  0  0  0  0  0  0  0  0  0
   -5.3878    2.9784   -0.9726 H   0  0  0  0  0  0  0  0  0  0  0  0
   -5.1007    1.6364    1.0583 H   0  0  0  0  0  0  0  0  0  0  0  0
   -4.0540    1.0118    3.0746 H   0  0  0  0  0  0  0  0  0  0  0  0
   -3.4745   -0.6241    3.4124 H   0  0  0  0  0  0  0  0  0  0  0  0
   -4.7652   -0.4147    2.2206 H   0  0  0  0  0  0  0  0  0  0  0  0
  1  2  1  0
  2  3  1  0
  3  4  2  0
  4  5  1  0
  5  6  2  0
  6  7  1  0
  7  8  1  0
  7  9  2  0
  6 10  1  0
 10 11  2  0
 11 12  1  0
 12 13  1  0
 13 14  2  0
 14 15  1  0
 15 16  1  0
 16 17  2  0
 17 18  1  0
 18 19  2  0
 19 20  1  0
 20 21  2  0
 21 22  1  0
 22 23  1  0
  9  3  1  0
 14 10  1  0
 21 16  1  0
  1 24  1  0
  1 25  1  0
  1 26  1  0
  4 27  1  0
  5 28  1  0
  8 29  1  0
  9 30  1  0
 12 31  1  0
 13 32  1  0
 17 33  1  0
 18 34  1  0
 19 35  1  0
 20 36  1  0
 23 37  1  0
 23 38  1  0
 23 39  1  0
M  END
>  <Unnamed: 0>  (167) 
980

>  <ID>  (167) 
TRAIN_0980

>  <Canonical_Smiles>  (167) 
COc1ccc(c(O)c1)c2n[nH]cc2Oc3ccccc3OC

>  <Inhibition>  (167) 
91.7

>  <TDC_conf_true_inhibitor>  (167) 
1

>  <TDC_conf_non_inhibitor>  (167) 
0

>  <split>  (167) 
1

$$$$
167
     RDKit          3D

 37 39  0  0  0  0  0  0  0  0999 V2000
   -2.0394    1.8580   -3.8374 N   0  0  0  0  0  0  0  0  0  0  0  0
   -1.6556    1.2280   -2.6730 C   0  0  0  0  0  0  0  0  0  0  0  0
   -0.3622    1.1650   -2.4125 N   0  0  0  0  0  0  0  0  0  0  0  0
   -0.0492    0.5493   -1.2775 C   0  0  0  0  0  0  0  0  0  0  0  0
    1.3816    0.4648   -0.9721 C   0  0  0  0  0  0  0  0  0  0  0  0
    1.9108   -0.1089    0.1209 C   0  0  0  0  0  0  0  0  0  0  0  0
    3.3606   -0.1522    0.3531 C   0  0  0  0  0  0  0  0  0  0  0  0
    4.1861   -0.8355   -0.5525 C   0  0  0  0  0  0  0  0  0  0  0  0
    5.5643   -0.9196   -0.3366 C   0  0  0  0  0  0  0  0  0  0  0  0
    6.1320   -0.3271    0.7898 C   0  0  0  0  0  0  0  0  0  0  0  0
    5.3232    0.3512    1.6999 C   0  0  0  0  0  0  0  0  0  0  0  0
    3.9494    0.4387    1.4805 C   0  0  0  0  0  0  0  0  0  0  0  0
    3.2337    1.1369    2.4151 O   0  0  0  0  0  0  0  0  0  0  0  0
   -0.9183    0.0278   -0.4120 N   0  0  0  0  0  0  0  0  0  0  0  0
   -2.2007    0.1618   -0.7699 C   0  0  0  0  0  0  0  0  0  0  0  0
   -2.6124    0.7637   -1.8877 N   0  0  0  0  0  0  0  0  0  0  0  0
   -3.2306   -0.3862    0.1421 C   0  0  0  0  0  0  0  0  0  0  0  0
   -4.6019   -0.2744   -0.1783 C   0  0  0  0  0  0  0  0  0  0  0  0
   -5.6030   -0.7757    0.6619 C   0  0  0  0  0  0  0  0  0  0  0  0
   -5.2607   -1.4063    1.8524 C   0  0  0  0  0  0  0  0  0  0  0  0
   -3.9202   -1.5365    2.2000 C   0  0  0  0  0  0  0  0  0  0  0  0
   -2.9250   -1.0355    1.3565 C   0  0  0  0  0  0  0  0  0  0  0  0
   -1.6405   -1.2259    1.8008 O   0  0  0  0  0  0  0  0  0  0  0  0
   -2.9841    2.2089   -3.7672 H   0  0  0  0  0  0  0  0  0  0  0  0
   -1.3263    2.4993   -4.1556 H   0  0  0  0  0  0  0  0  0  0  0  0
    2.0243    0.9215   -1.7207 H   0  0  0  0  0  0  0  0  0  0  0  0
    1.2982   -0.5686    0.8914 H   0  0  0  0  0  0  0  0  0  0  0  0
    3.7614   -1.3192   -1.4297 H   0  0  0  0  0  0  0  0  0  0  0  0
    6.1931   -1.4535   -1.0446 H   0  0  0  0  0  0  0  0  0  0  0  0
    7.2031   -0.3944    0.9611 H   0  0  0  0  0  0  0  0  0  0  0  0
    5.7615    0.8152    2.5793 H   0  0  0  0  0  0  0  0  0  0  0  0
    2.3238    1.2442    2.0937 H   0  0  0  0  0  0  0  0  0  0  0  0
   -4.9085    0.2123   -1.1036 H   0  0  0  0  0  0  0  0  0  0  0  0
   -6.6484   -0.6717    0.3817 H   0  0  0  0  0  0  0  0  0  0  0  0
   -6.0339   -1.7974    2.5081 H   0  0  0  0  0  0  0  0  0  0  0  0
   -3.6433   -2.0301    3.1280 H   0  0  0  0  0  0  0  0  0  0  0  0
   -1.0426   -0.8683    1.1145 H   0  0  0  0  0  0  0  0  0  0  0  0
  1  2  1  0
  2  3  2  0
  3  4  1  0
  4  5  1  0
  5  6  2  0
  6  7  1  0
  7  8  2  0
  8  9  1  0
  9 10  2  0
 10 11  1  0
 11 12  2  0
 12 13  1  0
  4 14  2  0
 14 15  1  0
 15 16  2  0
 15 17  1  0
 17 18  2  0
 18 19  1  0
 19 20  2  0
 20 21  1  0
 21 22  2  0
 22 23  1  0
 16  2  1  0
 12  7  1  0
 22 17  1  0
  1 24  1  0
  1 25  1  0
  5 26  1  0
  6 27  1  0
  8 28  1  0
  9 29  1  0
 10 30  1  0
 11 31  1  0
 13 32  1  0
 18 33  1  0
 19 34  1  0
 20 35  1  0
 21 36  1  0
 23 37  1  0
M  END
>  <Unnamed: 0>  (168) 
990

>  <ID>  (168) 
TRAIN_0990

>  <Canonical_Smiles>  (168) 
Nc1nc(\C=C\c2ccccc2O)nc(n1)c3ccccc3O

>  <Inhibition>  (168) 
38.2

>  <TDC_conf_true_inhibitor>  (168) 
0

>  <TDC_conf_non_inhibitor>  (168) 
1

>  <split>  (168) 
1

$$$$
168
     RDKit          3D

 51 54  0  0  0  0  0  0  0  0999 V2000
   -4.7277   -2.7286    0.4678 C   0  0  0  0  0  0  0  0  0  0  0  0
   -4.6614   -1.2658    0.1129 C   0  0  0  0  0  0  0  0  0  0  0  0
   -3.5030   -0.5423    0.4690 C   0  0  0  0  0  0  0  0  0  0  0  0
   -3.3513    0.8233    0.1786 C   0  0  0  0  0  0  0  0  0  0  0  0
   -4.3888    1.4694   -0.4952 C   0  0  0  0  0  0  0  0  0  0  0  0
   -5.5458    0.7580   -0.8518 C   0  0  0  0  0  0  0  0  0  0  0  0
   -5.7259   -0.6043   -0.5342 C   0  0  0  0  0  0  0  0  0  0  0  0
   -6.9863   -1.3438   -0.9051 C   0  0  0  0  0  0  0  0  0  0  0  0
   -6.5649    1.4987   -1.5860 N   0  0  0  0  0  4  0  0  0  0  0  0
   -6.9625    2.5583   -1.0827 O   0  0  0  0  0  0  0  0  0  0  0  0
   -6.9429    1.0309   -2.6685 O   0  0  0  0  0  1  0  0  0  0  0  0
   -2.1442    1.5529    0.5604 C   0  0  0  0  0  0  0  0  0  0  0  0
   -1.1289    0.8106    1.0884 O   0  0  0  0  0  0  0  0  0  0  0  0
   -0.0637    1.6349    1.3718 C   0  0  0  0  0  0  0  0  0  0  0  0
    1.1238    1.1257    1.9589 C   0  0  0  0  0  0  0  0  0  0  0  0
    2.3749    1.2727    1.4822 C   0  0  0  0  0  0  0  0  0  0  0  0
    3.4162    0.5583    2.2378 C   0  0  0  0  0  0  0  0  0  0  0  0
    3.3047    0.2645    3.4212 O   0  0  0  0  0  0  0  0  0  0  0  0
    4.5182    0.2330    1.5345 O   0  0  0  0  0  0  0  0  0  0  0  0
    4.4877    0.3560    0.1104 C   0  0  0  0  0  0  0  0  0  0  0  0
    3.7436   -0.8349   -0.5384 C   0  0  0  0  0  0  0  0  0  0  0  0
    4.6497   -2.0186   -0.8978 C   0  0  0  0  0  0  0  0  0  0  0  0
    5.8408   -2.1421    0.0400 C   0  0  0  0  0  0  0  0  0  0  0  0
    6.7163   -0.8894    0.0131 C   0  0  0  0  0  0  0  0  0  0  0  0
    5.9486    0.3819   -0.3577 C   0  0  0  0  0  0  0  0  0  0  0  0
    3.9059    1.5914   -0.3078 O   0  0  0  0  0  0  0  0  0  0  0  0
    2.7673    2.0170    0.2779 C   0  0  0  0  0  0  0  0  0  0  0  0
    2.1600    2.9783   -0.1687 O   0  0  0  0  0  0  0  0  0  0  0  0
   -0.4481    2.9280    1.0474 C   0  0  0  0  0  0  0  0  0  0  0  0
   -1.7599    2.8745    0.5175 C   0  0  0  0  0  0  0  0  0  0  0  0
   -5.0246   -3.3224   -0.4027 H   0  0  0  0  0  0  0  0  0  0  0  0
   -3.7534   -3.1075    0.7950 H   0  0  0  0  0  0  0  0  0  0  0  0
   -5.4408   -2.8868    1.2829 H   0  0  0  0  0  0  0  0  0  0  0  0
   -2.6988   -1.0637    0.9892 H   0  0  0  0  0  0  0  0  0  0  0  0
   -4.3049    2.5228   -0.7550 H   0  0  0  0  0  0  0  0  0  0  0  0
   -7.1788   -2.1843   -0.2318 H   0  0  0  0  0  0  0  0  0  0  0  0
   -7.8670   -0.6985   -0.8234 H   0  0  0  0  0  0  0  0  0  0  0  0
   -6.9097   -1.7262   -1.9275 H   0  0  0  0  0  0  0  0  0  0  0  0
    0.9515    0.4939    2.8296 H   0  0  0  0  0  0  0  0  0  0  0  0
    3.2235   -0.5118   -1.4491 H   0  0  0  0  0  0  0  0  0  0  0  0
    2.9647   -1.2025    0.1408 H   0  0  0  0  0  0  0  0  0  0  0  0
    4.0632   -2.9446   -0.8890 H   0  0  0  0  0  0  0  0  0  0  0  0
    5.0147   -1.8934   -1.9252 H   0  0  0  0  0  0  0  0  0  0  0  0
    5.4789   -2.3147    1.0613 H   0  0  0  0  0  0  0  0  0  0  0  0
    6.4443   -3.0176   -0.2254 H   0  0  0  0  0  0  0  0  0  0  0  0
    7.5348   -1.0245   -0.7045 H   0  0  0  0  0  0  0  0  0  0  0  0
    7.1902   -0.7682    0.9948 H   0  0  0  0  0  0  0  0  0  0  0  0
    6.4700    1.2483    0.0696 H   0  0  0  0  0  0  0  0  0  0  0  0
    5.9796    0.5281   -1.4459 H   0  0  0  0  0  0  0  0  0  0  0  0
    0.1568    3.8165    1.1736 H   0  0  0  0  0  0  0  0  0  0  0  0
   -2.3465    3.7084    0.1594 H   0  0  0  0  0  0  0  0  0  0  0  0
  1  2  1  0
  2  3  2  0
  3  4  1  0
  4  5  2  0
  5  6  1  0
  6  7  2  0
  7  8  1  0
  6  9  1  0
  9 10  2  0
  9 11  1  0
  4 12  1  0
 12 13  1  0
 13 14  1  0
 14 15  1  0
 15 16  2  3
 16 17  1  0
 17 18  2  0
 17 19  1  0
 19 20  1  0
 20 21  1  0
 21 22  1  0
 22 23  1  0
 23 24  1  0
 24 25  1  0
 20 26  1  0
 26 27  1  0
 27 28  2  0
 14 29  2  0
 29 30  1  0
  7  2  1  0
 30 12  2  0
 27 16  1  0
 25 20  1  0
  1 31  1  0
  1 32  1  0
  1 33  1  0
  3 34  1  0
  5 35  1  0
  8 36  1  0
  8 37  1  0
  8 38  1  0
 15 39  1  0
 21 40  1  0
 21 41  1  0
 22 42  1  0
 22 43  1  0
 23 44  1  0
 23 45  1  0
 24 46  1  0
 24 47  1  0
 25 48  1  0
 25 49  1  0
 29 50  1  0
 30 51  1  0
M  CHG  2   9   1  11  -1
M  END
>  <Unnamed: 0>  (169) 
996

>  <ID>  (169) 
TRAIN_0996

>  <Canonical_Smiles>  (169) 
Cc1cc(cc(c1C)[N+](=O)[O-])c2oc(C=C3C(=O)OC4(CCCCC4)OC3=O)cc2

>  <Inhibition>  (169) 
63.4

>  <TDC_conf_true_inhibitor>  (169) 
1

>  <TDC_conf_non_inhibitor>  (169) 
0

>  <split>  (169) 
1

$$$$
169
     RDKit          3D

 76 79  0  0  0  0  0  0  0  0999 V2000
    8.1775    2.0108   -0.1556 C   0  0  0  0  0  0  0  0  0  0  0  0
    6.7308    2.2522    0.2686 C   0  0  0  0  0  0  0  0  0  0  0  0
    5.7863    1.4035   -0.4716 N   0  0  0  0  0  0  0  0  0  0  0  0
    5.9466   -0.0275   -0.1653 C   0  0  0  0  0  0  0  0  0  0  0  0
    4.6300   -0.7959   -0.0369 C   0  0  0  0  0  0  0  0  0  0  0  0
    3.7734   -0.1392    1.0555 C   0  0  0  0  0  0  0  0  0  0  0  0
    3.6696    1.3864    0.8873 C   0  0  0  0  0  0  0  0  0  0  0  0
    4.3986    1.8762   -0.3635 C   0  0  0  0  0  0  0  0  0  0  0  0
    2.4698   -0.8088    1.2518 N   0  0  0  0  0  0  0  0  0  0  0  0
    2.1668   -1.2428    2.6081 C   0  0  0  0  0  0  0  0  0  0  0  0
    1.4938   -0.7008    0.2512 C   0  0  0  0  0  0  0  0  0  0  0  0
    1.7615   -0.2321   -0.8575 O   0  0  0  0  0  0  0  0  0  0  0  0
    0.0872   -1.2617    0.5372 C   0  0  0  0  0  0  0  0  0  0  0  0
    0.0184   -2.6938   -0.0056 C   0  0  0  0  0  0  0  0  0  0  0  0
   -0.4992   -2.4804   -1.4289 C   0  0  0  0  0  0  0  0  0  0  0  0
   -0.9342   -3.7692   -2.1288 C   0  0  0  0  0  0  0  0  0  0  0  0
   -2.4059   -3.7707   -2.5203 C   0  0  0  0  0  0  0  0  0  0  0  0
   -3.2573   -3.3948   -1.3213 C   0  0  0  0  0  0  0  0  0  0  0  0
   -2.9578   -1.9831   -0.8195 C   0  0  0  0  0  0  0  0  0  0  0  0
   -1.5863   -1.4119   -1.2261 C   0  0  0  0  0  0  0  0  0  0  0  0
   -1.0815   -0.5771   -0.1003 N   0  0  0  0  0  0  0  0  0  0  0  0
   -0.9815    1.0927   -0.2532 S   0  0  0  0  0  6  0  0  0  0  0  0
   -0.2704    1.5823    0.9082 O   0  0  0  0  0  0  0  0  0  0  0  0
   -0.6003    1.4399   -1.5996 O   0  0  0  0  0  0  0  0  0  0  0  0
   -2.5894    1.5246   -0.0391 N   0  0  0  0  0  0  0  0  0  0  0  0
   -3.4377    1.7071   -1.2276 C   0  0  0  0  0  0  0  0  0  0  0  0
   -4.8946    2.0632   -0.8827 C   0  0  0  0  0  0  0  0  0  0  0  0
   -5.8004    0.8303   -0.8286 C   0  0  0  0  0  0  0  0  0  0  0  0
   -4.9809    2.9067    0.3920 C   0  0  0  0  0  0  0  0  0  0  0  0
   -4.2419    2.3081    1.6016 C   0  0  0  0  0  0  0  0  0  0  0  0
   -5.2241    1.7988    2.6597 C   0  0  0  0  0  0  0  0  0  0  0  0
   -3.2446    1.2046    1.2302 C   0  0  0  0  0  0  0  0  0  0  0  0
    8.5049    0.9876    0.0571 H   0  0  0  0  0  0  0  0  0  0  0  0
    8.8431    2.6925    0.3857 H   0  0  0  0  0  0  0  0  0  0  0  0
    8.3069    2.1947   -1.2282 H   0  0  0  0  0  0  0  0  0  0  0  0
    6.5145    3.3112    0.0718 H   0  0  0  0  0  0  0  0  0  0  0  0
    6.6294    2.1031    1.3519 H   0  0  0  0  0  0  0  0  0  0  0  0
    6.5568   -0.4858   -0.9518 H   0  0  0  0  0  0  0  0  0  0  0  0
    6.4945   -0.1660    0.7767 H   0  0  0  0  0  0  0  0  0  0  0  0
    4.1227   -0.8280   -1.0075 H   0  0  0  0  0  0  0  0  0  0  0  0
    4.8339   -1.8403    0.2324 H   0  0  0  0  0  0  0  0  0  0  0  0
    4.3307   -0.2932    1.9907 H   0  0  0  0  0  0  0  0  0  0  0  0
    2.6269    1.7218    0.8526 H   0  0  0  0  0  0  0  0  0  0  0  0
    4.1052    1.8700    1.7727 H   0  0  0  0  0  0  0  0  0  0  0  0
    4.3557    2.9730   -0.4071 H   0  0  0  0  0  0  0  0  0  0  0  0
    3.8520    1.5408   -1.2557 H   0  0  0  0  0  0  0  0  0  0  0  0
    1.7291   -0.4031    3.1553 H   0  0  0  0  0  0  0  0  0  0  0  0
    3.0793   -1.5835    3.1083 H   0  0  0  0  0  0  0  0  0  0  0  0
    1.4727   -2.0852    2.6046 H   0  0  0  0  0  0  0  0  0  0  0  0
   -0.1190   -1.2535    1.6109 H   0  0  0  0  0  0  0  0  0  0  0  0
    0.9837   -3.2102    0.0076 H   0  0  0  0  0  0  0  0  0  0  0  0
   -0.6933   -3.2867    0.5828 H   0  0  0  0  0  0  0  0  0  0  0  0
    0.3126   -2.0395   -2.0246 H   0  0  0  0  0  0  0  0  0  0  0  0
   -0.3337   -3.9089   -3.0365 H   0  0  0  0  0  0  0  0  0  0  0  0
   -0.7222   -4.6386   -1.4945 H   0  0  0  0  0  0  0  0  0  0  0  0
   -2.5800   -3.0673   -3.3439 H   0  0  0  0  0  0  0  0  0  0  0  0
   -2.6894   -4.7647   -2.8828 H   0  0  0  0  0  0  0  0  0  0  0  0
   -3.0693   -4.1089   -0.5069 H   0  0  0  0  0  0  0  0  0  0  0  0
   -4.3237   -3.4841   -1.5665 H   0  0  0  0  0  0  0  0  0  0  0  0
   -3.7347   -1.3137   -1.2067 H   0  0  0  0  0  0  0  0  0  0  0  0
   -3.0885   -1.9721    0.2712 H   0  0  0  0  0  0  0  0  0  0  0  0
   -1.6947   -0.8346   -2.1508 H   0  0  0  0  0  0  0  0  0  0  0  0
   -3.0175    2.5446   -1.8008 H   0  0  0  0  0  0  0  0  0  0  0  0
   -3.4059    0.8251   -1.8734 H   0  0  0  0  0  0  0  0  0  0  0  0
   -5.2825    2.6747   -1.7107 H   0  0  0  0  0  0  0  0  0  0  0  0
   -5.4774    0.0973   -0.0881 H   0  0  0  0  0  0  0  0  0  0  0  0
   -6.8284    1.1157   -0.5859 H   0  0  0  0  0  0  0  0  0  0  0  0
   -5.8180    0.3258   -1.8027 H   0  0  0  0  0  0  0  0  0  0  0  0
   -6.0271    3.1205    0.6348 H   0  0  0  0  0  0  0  0  0  0  0  0
   -4.5260    3.8820    0.1740 H   0  0  0  0  0  0  0  0  0  0  0  0
   -3.6779    3.1296    2.0649 H   0  0  0  0  0  0  0  0  0  0  0  0
   -5.8914    2.6039    2.9884 H   0  0  0  0  0  0  0  0  0  0  0  0
   -4.6884    1.4279    3.5412 H   0  0  0  0  0  0  0  0  0  0  0  0
   -5.8456    0.9835    2.2712 H   0  0  0  0  0  0  0  0  0  0  0  0
   -3.7300    0.2264    1.1568 H   0  0  0  0  0  0  0  0  0  0  0  0
   -2.5123    1.1184    2.0424 H   0  0  0  0  0  0  0  0  0  0  0  0
  1  2  1  0
  2  3  1  0
  3  4  1  0
  4  5  1  0
  5  6  1  0
  6  7  1  0
  7  8  1  0
  6  9  1  0
  9 10  1  0
  9 11  1  0
 11 12  2  0
 11 13  1  0
 13 14  1  0
 14 15  1  0
 15 16  1  0
 16 17  1  0
 17 18  1  0
 18 19  1  0
 19 20  1  0
 20 21  1  0
 21 22  1  0
 22 23  2  0
 22 24  2  0
 22 25  1  0
 25 26  1  0
 26 27  1  0
 27 28  1  0
 27 29  1  0
 29 30  1  0
 30 31  1  0
 30 32  1  0
  8  3  1  0
 21 13  1  0
 20 15  1  0
 32 25  1  0
  1 33  1  0
  1 34  1  0
  1 35  1  0
  2 36  1  0
  2 37  1  0
  4 38  1  0
  4 39  1  0
  5 40  1  0
  5 41  1  0
  6 42  1  0
  7 43  1  0
  7 44  1  0
  8 45  1  0
  8 46  1  0
 10 47  1  0
 10 48  1  0
 10 49  1  0
 13 50  1  0
 14 51  1  0
 14 52  1  0
 15 53  1  0
 16 54  1  0
 16 55  1  0
 17 56  1  0
 17 57  1  0
 18 58  1  0
 18 59  1  0
 19 60  1  0
 19 61  1  0
 20 62  1  0
 26 63  1  0
 26 64  1  0
 27 65  1  0
 28 66  1  0
 28 67  1  0
 28 68  1  0
 29 69  1  0
 29 70  1  0
 30 71  1  0
 31 72  1  0
 31 73  1  0
 31 74  1  0
 32 75  1  0
 32 76  1  0
M  END
>  <Unnamed: 0>  (170) 
997

>  <ID>  (170) 
TRAIN_0997

>  <Canonical_Smiles>  (170) 
CCN1CCC(CC1)N(C)C(=O)C2CC3CCCCC3N2S(=O)(=O)N4CC(C)CC(C)C4

>  <Inhibition>  (170) 
71.0

>  <TDC_conf_true_inhibitor>  (170) 
1

>  <TDC_conf_non_inhibitor>  (170) 
0

>  <split>  (170) 
1

$$$$
170
     RDKit          3D

 42 43  0  0  0  0  0  0  0  0999 V2000
    0.6828    0.0000    0.0000 Cl  0  0  0  0  0  0  0  0  0  0  0  0
    2.8026    1.5851    0.5116 C   0  0  0  0  0  0  0  0  0  0  0  0
    3.0780    0.1370    0.2973 C   0  0  0  0  0  0  0  0  0  0  0  0
    4.1295   -0.4207    1.0399 C   0  0  0  0  0  0  0  0  0  0  0  0
    4.4990   -1.7405    0.9197 C   0  0  0  0  0  0  0  0  0  0  0  0
    3.7981   -2.5316    0.0299 C   0  0  0  0  0  0  0  0  0  0  0  0
    2.7725   -1.9866   -0.6938 C   0  0  0  0  0  0  0  0  0  0  0  0
    2.3845   -0.6392   -0.5792 C   0  0  0  0  0  0  0  0  0  0  0  0
    1.2738   -0.1919   -1.4042 C   0  0  0  0  0  0  0  0  0  0  0  0
   -0.0030   -0.0073   -0.7770 N   0  0  0  0  0  0  0  0  0  0  0  0
   -0.9162   -0.9591   -0.4331 C   0  0  0  0  0  0  0  0  0  0  0  0
   -0.8198   -2.2247   -0.5526 N   0  0  0  0  0  0  0  0  0  0  0  0
   -2.0292   -0.3925    0.0769 N   0  0  0  0  0  0  0  0  0  0  0  0
   -3.2053   -1.0726    0.5540 C   0  0  0  0  0  0  0  0  0  0  0  0
   -4.2245   -1.2782   -0.5518 C   0  0  0  0  0  0  0  0  0  0  0  0
   -5.3511   -1.9440   -0.0466 O   0  0  0  0  0  0  0  0  0  0  0  0
   -1.8354    0.9174    0.0597 C   0  0  0  0  0  0  0  0  0  0  0  0
   -2.6907    1.9296    0.4555 C   0  0  0  0  0  0  0  0  0  0  0  0
   -2.3080    3.2559    0.3276 C   0  0  0  0  0  0  0  0  0  0  0  0
   -1.0640    3.5123   -0.2008 C   0  0  0  0  0  0  0  0  0  0  0  0
   -0.2310    2.5034   -0.5860 C   0  0  0  0  0  0  0  0  0  0  0  0
   -0.5834    1.1611   -0.4689 C   0  0  0  0  0  0  0  0  0  0  0  0
   -0.6828    0.0000    0.0000 H   0  0  0  0  0  0  0  0  0  0  0  0
    2.8713    2.1565   -0.4361 H   0  0  0  0  0  0  0  0  0  0  0  0
    3.6490    2.0205    1.1270 H   0  0  0  0  0  0  0  0  0  0  0  0
    1.9115    1.7784    1.1217 H   0  0  0  0  0  0  0  0  0  0  0  0
    4.6868    0.2005    1.7453 H   0  0  0  0  0  0  0  0  0  0  0  0
    5.3092   -2.1813    1.4884 H   0  0  0  0  0  0  0  0  0  0  0  0
    4.0693   -3.5874   -0.0877 H   0  0  0  0  0  0  0  0  0  0  0  0
    2.2722   -2.6714   -1.3878 H   0  0  0  0  0  0  0  0  0  0  0  0
    1.1542   -0.9239   -2.2617 H   0  0  0  0  0  0  0  0  0  0  0  0
    1.5400    0.7767   -1.9071 H   0  0  0  0  0  0  0  0  0  0  0  0
   -0.0060   -2.7196   -0.9409 H   0  0  0  0  0  0  0  0  0  0  0  0
   -3.7256   -0.4502    1.3382 H   0  0  0  0  0  0  0  0  0  0  0  0
   -2.9943   -2.0474    1.0342 H   0  0  0  0  0  0  0  0  0  0  0  0
   -4.5963   -0.3186   -0.9646 H   0  0  0  0  0  0  0  0  0  0  0  0
   -3.7914   -1.8545   -1.3938 H   0  0  0  0  0  0  0  0  0  0  0  0
   -5.1299   -2.8513    0.2882 H   0  0  0  0  0  0  0  0  0  0  0  0
   -3.6607    1.7096    0.8665 H   0  0  0  0  0  0  0  0  0  0  0  0
   -2.9907    4.0271    0.6430 H   0  0  0  0  0  0  0  0  0  0  0  0
   -0.7656    4.5575   -0.3017 H   0  0  0  0  0  0  0  0  0  0  0  0
    0.7206    2.7659   -1.0125 H   0  0  0  0  0  0  0  0  0  0  0  0
  2  3  1  0
  3  4  2  0
  4  5  1  0
  5  6  2  0
  6  7  1  0
  7  8  2  0
  8  9  1  0
  9 10  1  0
 10 11  1  0
 11 12  2  3
 11 13  1  0
 13 14  1  0
 14 15  1  0
 15 16  1  0
 13 17  1  0
 17 18  2  0
 18 19  1  0
 19 20  2  0
 20 21  1  0
 21 22  2  0
  8  3  1  0
 22 10  1  0
 22 17  1  0
  1 23  1  0
  2 24  1  0
  2 25  1  0
  2 26  1  0
  4 27  1  0
  5 28  1  0
  6 29  1  0
  7 30  1  0
  9 31  1  0
  9 32  1  0
 12 33  1  0
 14 34  1  0
 14 35  1  0
 15 36  1  0
 15 37  1  0
 16 38  1  0
 18 39  1  0
 19 40  1  0
 20 41  1  0
 21 42  1  0
M  END
>  <Unnamed: 0>  (171) 
999

>  <ID>  (171) 
TRAIN_0999

>  <Canonical_Smiles>  (171) 
Cl.Cc1ccccc1CN2C(=N)N(CCO)c3ccccc23

>  <Inhibition>  (171) 
8.77

>  <TDC_conf_true_inhibitor>  (171) 
0

>  <TDC_conf_non_inhibitor>  (171) 
1

>  <split>  (171) 
1

$$$$
171
     RDKit          3D

 52 56  0  0  0  0  0  0  0  0999 V2000
   -4.6244   -2.9595    0.4666 C   0  0  0  0  0  0  0  0  0  0  0  0
   -3.2451   -2.5908   -0.0819 C   0  0  0  0  0  0  0  0  0  0  0  0
   -3.3898   -1.6330   -1.2777 C   0  0  0  0  0  0  0  0  0  0  0  0
   -2.1184   -0.8132   -1.4851 C   0  0  0  0  0  0  0  0  0  0  0  0
   -1.8462    0.1223   -0.2786 C   0  0  0  0  0  0  0  0  0  0  0  0
   -2.3518   -0.4966    1.0483 C   0  0  0  0  0  0  0  0  0  0  0  0
   -2.3332   -2.0227    1.0210 C   0  0  0  0  0  0  0  0  0  0  0  0
   -2.6631    1.3017   -0.5268 O   0  0  0  0  0  0  0  0  0  0  0  0
   -2.1313    2.5528   -0.3979 C   0  0  0  0  0  0  0  0  0  0  0  0
   -2.9684    3.6089   -0.7607 C   0  0  0  0  0  0  0  0  0  0  0  0
   -2.5231    4.9263   -0.6582 C   0  0  0  0  0  0  0  0  0  0  0  0
   -1.2398    5.1900   -0.1844 C   0  0  0  0  0  0  0  0  0  0  0  0
   -0.4017    4.1364    0.1838 C   0  0  0  0  0  0  0  0  0  0  0  0
   -0.8397    2.8096    0.0667 C   0  0  0  0  0  0  0  0  0  0  0  0
   -0.0101    1.6504    0.4929 C   0  0  0  0  0  0  0  0  0  0  0  0
    1.4813    1.6718    0.2004 C   0  0  0  0  0  0  0  0  0  0  0  0
    1.6765    0.1946   -0.0589 C   0  0  0  0  0  0  0  0  0  0  0  0
    0.5765   -0.4617   -0.2986 N   0  0  0  0  0  0  0  0  0  0  0  0
   -0.4305    0.4644   -0.2177 N   0  0  0  0  0  0  0  0  0  0  0  0
    3.0175   -0.4312   -0.0610 C   0  0  0  0  0  0  0  0  0  0  0  0
    3.1158   -1.8222   -0.1744 C   0  0  0  0  0  0  0  0  0  0  0  0
    4.3675   -2.4425   -0.1770 C   0  0  0  0  0  0  0  0  0  0  0  0
    5.5357   -1.6812   -0.0586 C   0  0  0  0  0  0  0  0  0  0  0  0
    6.8808   -2.3446   -0.0972 C   0  0  0  0  0  0  0  0  0  0  0  0
    5.4339   -0.2880    0.0348 C   0  0  0  0  0  0  0  0  0  0  0  0
    4.1821    0.3357    0.0379 C   0  0  0  0  0  0  0  0  0  0  0  0
   -4.5388   -3.7068    1.2625 H   0  0  0  0  0  0  0  0  0  0  0  0
   -5.1372   -2.0839    0.8786 H   0  0  0  0  0  0  0  0  0  0  0  0
   -5.2549   -3.3832   -0.3223 H   0  0  0  0  0  0  0  0  0  0  0  0
   -2.7818   -3.5202   -0.4393 H   0  0  0  0  0  0  0  0  0  0  0  0
   -3.6099   -2.2130   -2.1820 H   0  0  0  0  0  0  0  0  0  0  0  0
   -4.2388   -0.9529   -1.1319 H   0  0  0  0  0  0  0  0  0  0  0  0
   -2.2155   -0.2226   -2.4048 H   0  0  0  0  0  0  0  0  0  0  0  0
   -1.2898   -1.5131   -1.6485 H   0  0  0  0  0  0  0  0  0  0  0  0
   -1.7534   -0.1468    1.8972 H   0  0  0  0  0  0  0  0  0  0  0  0
   -3.3769   -0.1611    1.2547 H   0  0  0  0  0  0  0  0  0  0  0  0
   -1.3044   -2.3617    0.8450 H   0  0  0  0  0  0  0  0  0  0  0  0
   -2.6182   -2.4180    2.0030 H   0  0  0  0  0  0  0  0  0  0  0  0
   -3.9707    3.4018   -1.1262 H   0  0  0  0  0  0  0  0  0  0  0  0
   -3.1787    5.7442   -0.9446 H   0  0  0  0  0  0  0  0  0  0  0  0
   -0.8942    6.2170   -0.0976 H   0  0  0  0  0  0  0  0  0  0  0  0
    0.5907    4.3616    0.5658 H   0  0  0  0  0  0  0  0  0  0  0  0
   -0.1708    1.4759    1.5651 H   0  0  0  0  0  0  0  0  0  0  0  0
    1.7352    2.2283   -0.7080 H   0  0  0  0  0  0  0  0  0  0  0  0
    2.0620    2.0378    1.0502 H   0  0  0  0  0  0  0  0  0  0  0  0
    2.2187   -2.4315   -0.2647 H   0  0  0  0  0  0  0  0  0  0  0  0
    4.4221   -3.5248   -0.2735 H   0  0  0  0  0  0  0  0  0  0  0  0
    7.6129   -1.7771    0.4869 H   0  0  0  0  0  0  0  0  0  0  0  0
    7.2324   -2.4176   -1.1309 H   0  0  0  0  0  0  0  0  0  0  0  0
    6.8326   -3.3507    0.3326 H   0  0  0  0  0  0  0  0  0  0  0  0
    6.3322    0.3223    0.1029 H   0  0  0  0  0  0  0  0  0  0  0  0
    4.1444    1.4185    0.1058 H   0  0  0  0  0  0  0  0  0  0  0  0
  1  2  1  0
  2  3  1  0
  3  4  1  0
  4  5  1  0
  5  6  1  0
  6  7  1  0
  5  8  1  0
  8  9  1  0
  9 10  2  0
 10 11  1  0
 11 12  2  0
 12 13  1  0
 13 14  2  0
 14 15  1  0
 15 16  1  0
 16 17  1  0
 17 18  2  0
 18 19  1  0
 17 20  1  0
 20 21  2  0
 21 22  1  0
 22 23  2  0
 23 24  1  0
 23 25  1  0
 25 26  2  0
  7  2  1  0
 19  5  1  0
 14  9  1  0
 19 15  1  0
 26 20  1  0
  1 27  1  0
  1 28  1  0
  1 29  1  0
  2 30  1  0
  3 31  1  0
  3 32  1  0
  4 33  1  0
  4 34  1  0
  6 35  1  0
  6 36  1  0
  7 37  1  0
  7 38  1  0
 10 39  1  0
 11 40  1  0
 12 41  1  0
 13 42  1  0
 15 43  1  0
 16 44  1  0
 16 45  1  0
 21 46  1  0
 22 47  1  0
 24 48  1  0
 24 49  1  0
 24 50  1  0
 25 51  1  0
 26 52  1  0
M  END
>  <Unnamed: 0>  (172) 
1016

>  <ID>  (172) 
TRAIN_1016

>  <Canonical_Smiles>  (172) 
CC1CCC2(CC1)Oc3ccccc3C4CC(=NN24)c5ccc(C)cc5

>  <Inhibition>  (172) 
63.7

>  <TDC_conf_true_inhibitor>  (172) 
1

>  <TDC_conf_non_inhibitor>  (172) 
0

>  <split>  (172) 
1

$$$$
172
     RDKit          3D

 54 58  0  0  0  0  0  0  0  0999 V2000
   -5.8069   -1.3556    0.2681 C   0  0  0  0  0  0  0  0  0  0  0  0
   -5.4900    0.1059    0.6369 C   0  0  0  0  0  0  0  0  0  0  0  0
   -6.5402    1.0139   -0.0391 C   0  0  0  0  0  0  0  0  0  0  0  0
   -5.6662    0.2648    2.1638 C   0  0  0  0  0  0  0  0  0  0  0  0
   -4.0367    0.5364    0.2133 C   0  0  0  0  0  0  0  0  0  0  0  0
   -2.9201   -0.3569    0.8157 C   0  0  0  0  0  0  0  0  0  0  0  0
   -1.5158    0.2248    0.5756 C   0  0  0  0  0  0  0  0  0  0  0  0
   -1.3186    0.6773   -0.8433 C   0  0  0  0  0  0  0  0  0  0  0  0
   -2.4049    0.8824   -1.6757 C   0  0  0  0  0  0  0  0  0  0  0  0
   -3.8424    0.6245   -1.3259 C   0  0  0  0  0  0  0  0  0  0  0  0
   -1.9677    1.4818   -3.2043 S   0  0  0  0  0  0  0  0  0  0  0  0
   -0.3206    1.5297   -2.7682 C   0  0  0  0  0  0  0  0  0  0  0  0
   -0.0773    1.0453   -1.4929 C   0  0  0  0  0  0  0  0  0  0  0  0
    1.2888    1.0016   -0.9647 C   0  0  0  0  0  0  0  0  0  0  0  0
    2.1320    1.8416   -1.2638 O   0  0  0  0  0  0  0  0  0  0  0  0
    1.5523   -0.1004   -0.1753 N   0  0  0  0  0  0  0  0  0  0  0  0
    2.8847   -0.3427    0.1471 N   0  0  0  0  0  0  0  0  0  0  0  0
    3.4782    0.1959    1.2588 C   0  0  0  0  0  0  0  0  0  0  0  0
    2.9914    0.9571    2.0822 O   0  0  0  0  0  0  0  0  0  0  0  0
    4.8606   -0.3891    1.3620 C   0  0  0  0  0  0  0  0  0  0  0  0
    5.9278    0.5917    0.8899 C   0  0  0  0  0  0  0  0  0  0  0  0
    7.3184   -0.0033    1.1144 C   0  0  0  0  0  0  0  0  0  0  0  0
    7.3768   -1.1008    0.0436 C   0  0  0  0  0  0  0  0  0  0  0  0
    6.0162   -0.9591   -0.6398 C   0  0  0  0  0  0  0  0  0  0  0  0
    5.8260    0.4719   -0.5496 O   0  0  0  0  0  0  0  0  0  0  0  0
    4.9117   -1.4714    0.2754 C   0  0  0  0  0  0  0  0  0  0  0  0
    3.5655   -1.4008   -0.3898 C   0  0  0  0  0  0  0  0  0  0  0  0
    3.1464   -2.2023   -1.2130 O   0  0  0  0  0  0  0  0  0  0  0  0
   -5.1367   -2.0569    0.7755 H   0  0  0  0  0  0  0  0  0  0  0  0
   -5.7283   -1.5309   -0.8091 H   0  0  0  0  0  0  0  0  0  0  0  0
   -6.8294   -1.6194    0.5636 H   0  0  0  0  0  0  0  0  0  0  0  0
   -6.5772    0.8573   -1.1222 H   0  0  0  0  0  0  0  0  0  0  0  0
   -6.3245    2.0720    0.1464 H   0  0  0  0  0  0  0  0  0  0  0  0
   -7.5468    0.8094    0.3443 H   0  0  0  0  0  0  0  0  0  0  0  0
   -5.0498   -0.4438    2.7253 H   0  0  0  0  0  0  0  0  0  0  0  0
   -5.4017    1.2772    2.4885 H   0  0  0  0  0  0  0  0  0  0  0  0
   -6.7056    0.0839    2.4624 H   0  0  0  0  0  0  0  0  0  0  0  0
   -3.8777    1.5508    0.6112 H   0  0  0  0  0  0  0  0  0  0  0  0
   -2.9678   -1.3570    0.3665 H   0  0  0  0  0  0  0  0  0  0  0  0
   -3.0488   -0.4845    1.8946 H   0  0  0  0  0  0  0  0  0  0  0  0
   -0.7838   -0.5375    0.8548 H   0  0  0  0  0  0  0  0  0  0  0  0
   -1.3618    1.0857    1.2380 H   0  0  0  0  0  0  0  0  0  0  0  0
   -4.1482   -0.3105   -1.8083 H   0  0  0  0  0  0  0  0  0  0  0  0
   -4.4643    1.4304   -1.7320 H   0  0  0  0  0  0  0  0  0  0  0  0
    0.4109    1.9012   -3.4748 H   0  0  0  0  0  0  0  0  0  0  0  0
    0.9895   -0.9286   -0.3373 H   0  0  0  0  0  0  0  0  0  0  0  0
    5.0257   -0.7805    2.3701 H   0  0  0  0  0  0  0  0  0  0  0  0
    5.8064    1.6250    1.2232 H   0  0  0  0  0  0  0  0  0  0  0  0
    8.0943    0.7437    0.9119 H   0  0  0  0  0  0  0  0  0  0  0  0
    7.4634   -0.3861    2.1288 H   0  0  0  0  0  0  0  0  0  0  0  0
    7.5446   -2.0980    0.4610 H   0  0  0  0  0  0  0  0  0  0  0  0
    8.1871   -0.8794   -0.6601 H   0  0  0  0  0  0  0  0  0  0  0  0
    5.9782   -1.3112   -1.6733 H   0  0  0  0  0  0  0  0  0  0  0  0
    5.0830   -2.4764    0.6714 H   0  0  0  0  0  0  0  0  0  0  0  0
  1  2  1  0
  2  3  1  0
  2  4  1  0
  2  5  1  0
  5  6  1  0
  6  7  1  0
  7  8  1  0
  8  9  2  0
  9 10  1  0
  9 11  1  0
 11 12  1  0
 12 13  2  0
 13 14  1  0
 14 15  2  0
 14 16  1  0
 16 17  1  0
 17 18  1  0
 18 19  2  0
 18 20  1  0
 20 21  1  0
 21 22  1  0
 22 23  1  0
 23 24  1  0
 24 25  1  0
 24 26  1  0
 26 27  1  0
 27 28  2  0
 10  5  1  0
 13  8  1  0
 27 17  1  0
 26 20  1  0
 25 21  1  0
  1 29  1  0
  1 30  1  0
  1 31  1  0
  3 32  1  0
  3 33  1  0
  3 34  1  0
  4 35  1  0
  4 36  1  0
  4 37  1  0
  5 38  1  0
  6 39  1  0
  6 40  1  0
  7 41  1  0
  7 42  1  0
 10 43  1  0
 10 44  1  0
 12 45  1  0
 16 46  1  0
 20 47  1  0
 21 48  1  0
 22 49  1  0
 22 50  1  0
 23 51  1  0
 23 52  1  0
 24 53  1  0
 26 54  1  0
M  END
>  <Unnamed: 0>  (173) 
1018

>  <ID>  (173) 
TRAIN_1018

>  <Canonical_Smiles>  (173) 
CC(C)(C)C1CCc2c(C1)scc2C(=O)NN3C(=O)C4C5CCC(O5)C4C3=O

>  <Inhibition>  (173) 
8.87

>  <TDC_conf_true_inhibitor>  (173) 
0

>  <TDC_conf_non_inhibitor>  (173) 
1

>  <split>  (173) 
1

$$$$
173
     RDKit          3D

 58 61  0  0  0  0  0  0  0  0999 V2000
    1.9360    1.6901    2.6899 C   0  0  0  0  0  0  0  0  0  0  0  0
    0.6779    1.3925    1.8684 C   0  0  0  0  0  0  0  0  0  0  0  0
   -0.1234    0.3196    2.6185 C   0  0  0  0  0  0  0  0  0  0  0  0
   -1.4707    0.0293    1.9694 C   0  0  0  0  0  0  0  0  0  0  0  0
   -1.3229   -0.3559    0.4845 C   0  0  0  0  0  0  0  0  0  0  0  0
   -2.6545   -0.9159   -0.1642 C   0  0  2  0  0  0  0  0  0  0  0  0
   -3.8464    0.0664   -0.0721 C   0  0  0  0  0  0  0  0  0  0  0  0
   -3.0952   -2.2177    0.5862 C   0  0  0  0  0  0  0  0  0  0  0  0
   -4.2549   -2.8291    0.0249 O   0  0  0  0  0  0  0  0  0  0  0  0
   -2.3563   -1.3058   -1.6434 C   0  0  1  0  0  0  0  0  0  0  0  0
   -3.5514   -1.7318   -2.3034 O   0  0  0  0  0  0  0  0  0  0  0  0
   -1.6999   -0.1886   -2.4425 C   0  0  0  0  0  0  0  0  0  0  0  0
   -0.3973    0.2654   -1.7901 C   0  0  0  0  0  0  0  0  0  0  0  0
   -0.5452    0.7691   -0.3270 C   0  0  1  0  0  0  0  0  0  0  0  0
   -1.2892    2.1317   -0.3602 C   0  0  0  0  0  0  0  0  0  0  0  0
    0.8947    0.9910    0.3627 C   0  0  1  0  0  0  0  0  0  0  0  0
    1.7980    2.0004   -0.3711 C   0  0  0  0  0  0  0  0  0  0  0  0
    3.1975    1.4389   -0.2420 C   0  0  0  0  0  0  0  0  0  0  0  0
    2.9727   -0.0578   -0.1732 C   0  0  0  0  0  0  0  0  0  0  0  0
    3.1584   -0.7736   -1.5004 C   0  0  0  0  0  0  0  0  0  0  0  0
    3.3346   -2.2095   -1.0530 C   0  0  0  0  0  0  0  0  0  0  0  0
    4.0942   -2.1555    0.1600 O   0  0  0  0  0  0  0  0  0  0  0  0
    3.9667   -0.8261    0.7045 C   0  0  0  0  0  0  0  0  0  0  0  0
    1.6259   -0.2598    0.3090 O   0  0  0  0  0  0  0  0  0  0  0  0
    2.6059    0.8297    2.7421 H   0  0  0  0  0  0  0  0  0  0  0  0
    2.4806    2.5539    2.2951 H   0  0  0  0  0  0  0  0  0  0  0  0
    1.6625    1.9507    3.7196 H   0  0  0  0  0  0  0  0  0  0  0  0
    0.0974    2.3233    1.8911 H   0  0  0  0  0  0  0  0  0  0  0  0
   -0.2991    0.6412    3.6532 H   0  0  0  0  0  0  0  0  0  0  0  0
    0.4597   -0.6098    2.6794 H   0  0  0  0  0  0  0  0  0  0  0  0
   -1.9301   -0.7826    2.5440 H   0  0  0  0  0  0  0  0  0  0  0  0
   -2.1269    0.8978    2.0899 H   0  0  0  0  0  0  0  0  0  0  0  0
   -0.6485   -1.2280    0.4835 H   0  0  0  0  0  0  0  0  0  0  0  0
   -4.0236    0.3907    0.9601 H   0  0  0  0  0  0  0  0  0  0  0  0
   -4.7793   -0.3957   -0.4178 H   0  0  0  0  0  0  0  0  0  0  0  0
   -3.7111    0.9577   -0.6861 H   0  0  0  0  0  0  0  0  0  0  0  0
   -3.3397   -2.0154    1.6313 H   0  0  0  0  0  0  0  0  0  0  0  0
   -2.2905   -2.9611    0.5741 H   0  0  0  0  0  0  0  0  0  0  0  0
   -4.2077   -2.6800   -0.9423 H   0  0  0  0  0  0  0  0  0  0  0  0
   -1.6823   -2.1711   -1.6534 H   0  0  0  0  0  0  0  0  0  0  0  0
   -3.3806   -1.7389   -3.2630 H   0  0  0  0  0  0  0  0  0  0  0  0
   -2.3948    0.6426   -2.5907 H   0  0  0  0  0  0  0  0  0  0  0  0
   -1.4808   -0.5516   -3.4544 H   0  0  0  0  0  0  0  0  0  0  0  0
    0.0467    1.0360   -2.4300 H   0  0  0  0  0  0  0  0  0  0  0  0
    0.2775   -0.5948   -1.8064 H   0  0  0  0  0  0  0  0  0  0  0  0
   -0.6217    2.9494   -0.6475 H   0  0  0  0  0  0  0  0  0  0  0  0
   -2.0993    2.1608   -1.0897 H   0  0  0  0  0  0  0  0  0  0  0  0
   -1.7207    2.3986    0.6050 H   0  0  0  0  0  0  0  0  0  0  0  0
    1.7179    3.0202    0.0245 H   0  0  0  0  0  0  0  0  0  0  0  0
    1.5626    2.0626   -1.4378 H   0  0  0  0  0  0  0  0  0  0  0  0
    3.8409    1.7454   -1.0740 H   0  0  0  0  0  0  0  0  0  0  0  0
    3.6822    1.8038    0.6681 H   0  0  0  0  0  0  0  0  0  0  0  0
    2.3353   -0.6652   -2.2077 H   0  0  0  0  0  0  0  0  0  0  0  0
    4.0798   -0.4355   -1.9921 H   0  0  0  0  0  0  0  0  0  0  0  0
    2.3719   -2.6842   -0.8335 H   0  0  0  0  0  0  0  0  0  0  0  0
    3.8650   -2.8181   -1.7930 H   0  0  0  0  0  0  0  0  0  0  0  0
    3.6368   -0.9214    1.7418 H   0  0  0  0  0  0  0  0  0  0  0  0
    4.9647   -0.3788    0.6816 H   0  0  0  0  0  0  0  0  0  0  0  0
  1  2  1  0
  2  3  1  0
  3  4  1  0
  4  5  1  0
  5  6  1  0
  6  7  1  6
  6  8  1  0
  8  9  1  0
  6 10  1  0
 10 11  1  0
 10 12  1  0
 12 13  1  0
 13 14  1  0
 14 15  1  6
 14 16  1  0
 16 17  1  0
 17 18  1  0
 18 19  1  0
 19 20  1  0
 20 21  1  0
 21 22  1  0
 22 23  1  0
 19 24  1  0
 16  2  1  0
 14  5  1  0
 16 24  1  1
 23 19  1  0
  1 25  1  0
  1 26  1  0
  1 27  1  0
  2 28  1  0
  3 29  1  0
  3 30  1  0
  4 31  1  0
  4 32  1  0
  5 33  1  0
  7 34  1  0
  7 35  1  0
  7 36  1  0
  8 37  1  0
  8 38  1  0
  9 39  1  0
 10 40  1  1
 11 41  1  0
 12 42  1  0
 12 43  1  0
 13 44  1  0
 13 45  1  0
 15 46  1  0
 15 47  1  0
 15 48  1  0
 17 49  1  0
 17 50  1  0
 18 51  1  0
 18 52  1  0
 20 53  1  0
 20 54  1  0
 21 55  1  0
 21 56  1  0
 23 57  1  0
 23 58  1  0
M  END
>  <Unnamed: 0>  (174) 
1031

>  <ID>  (174) 
TRAIN_1031

>  <Canonical_Smiles>  (174) 
CC1CCC2[C@](C)(CO)[C@@H](O)CC[C@]2(C)[C@@]13CCC4(CCOC4)O3

>  <Inhibition>  (174) 
1.23

>  <TDC_conf_true_inhibitor>  (174) 
0

>  <TDC_conf_non_inhibitor>  (174) 
1

>  <split>  (174) 
1

$$$$
174
     RDKit          3D

 46 47  0  0  0  0  0  0  0  0999 V2000
    4.5899    1.8028   -1.7172 C   0  0  0  0  0  0  0  0  0  0  0  0
    4.8933    0.8302   -0.6174 C   0  0  0  0  0  0  0  0  0  0  0  0
    4.0528   -0.0804   -0.0939 C   0  0  0  0  0  0  0  0  0  0  0  0
    2.6554   -0.1535   -0.6000 C   0  0  0  0  0  0  0  0  0  0  0  0
    2.3279   -0.9241   -1.4919 O   0  0  0  0  0  0  0  0  0  0  0  0
    1.7989    0.6963    0.0553 N   0  0  0  0  0  0  0  0  0  0  0  0
    0.3874    0.7469   -0.2692 C   0  0  0  0  0  0  0  0  0  0  0  0
   -0.3870   -0.4626    0.2691 C   0  0  0  0  0  0  0  0  0  0  0  0
   -1.7984   -0.4122   -0.0556 N   0  0  0  0  0  0  0  0  0  0  0  0
   -2.6549    0.4387    0.5981 C   0  0  0  0  0  0  0  0  0  0  0  0
   -2.3275    1.2111    1.4885 O   0  0  0  0  0  0  0  0  0  0  0  0
   -4.0529    0.3620    0.0944 C   0  0  0  0  0  0  0  0  0  0  0  0
   -4.8992   -0.5278    0.6436 C   0  0  0  0  0  0  0  0  0  0  0  0
   -4.6010   -1.4732    1.7682 C   0  0  0  0  0  0  0  0  0  0  0  0
   -6.2372   -0.6457    0.1730 O   0  0  0  0  0  0  0  0  0  0  0  0
   -6.7112    0.1350   -0.8420 C   0  0  0  0  0  0  0  0  0  0  0  0
   -7.8550    0.0430   -1.2711 O   0  0  0  0  0  0  0  0  0  0  0  0
   -5.7722    1.1114   -1.4210 C   0  0  0  0  0  0  0  0  0  0  0  0
   -4.5095    1.2233   -0.9818 C   0  0  0  0  0  0  0  0  0  0  0  0
   -3.5594    2.2320   -1.5609 C   0  0  0  0  0  0  0  0  0  0  0  0
    4.5146   -0.9675    0.9589 C   0  0  0  0  0  0  0  0  0  0  0  0
    5.7760   -0.8586    1.4026 C   0  0  0  0  0  0  0  0  0  0  0  0
    6.7085    0.1399    0.8516 C   0  0  0  0  0  0  0  0  0  0  0  0
    7.8513    0.2282    1.2842 O   0  0  0  0  0  0  0  0  0  0  0  0
    6.2299    0.9448   -0.1421 O   0  0  0  0  0  0  0  0  0  0  0  0
    3.5706   -1.9973    1.5101 C   0  0  0  0  0  0  0  0  0  0  0  0
    5.3062    1.6743   -2.5354 H   0  0  0  0  0  0  0  0  0  0  0  0
    3.5879    1.6863   -2.1382 H   0  0  0  0  0  0  0  0  0  0  0  0
    4.6787    2.8276   -1.3426 H   0  0  0  0  0  0  0  0  0  0  0  0
    2.1420    1.2653    0.8198 H   0  0  0  0  0  0  0  0  0  0  0  0
    0.2829    0.8008   -1.3593 H   0  0  0  0  0  0  0  0  0  0  0  0
   -0.0046    1.6809    0.1464 H   0  0  0  0  0  0  0  0  0  0  0  0
   -0.2826   -0.5163    1.3592 H   0  0  0  0  0  0  0  0  0  0  0  0
    0.0053   -1.3965   -0.1464 H   0  0  0  0  0  0  0  0  0  0  0  0
   -2.1424   -0.9856   -0.8165 H   0  0  0  0  0  0  0  0  0  0  0  0
   -4.7117   -2.5068    1.4246 H   0  0  0  0  0  0  0  0  0  0  0  0
   -5.3062   -1.3083    2.5895 H   0  0  0  0  0  0  0  0  0  0  0  0
   -3.5924   -1.3631    2.1749 H   0  0  0  0  0  0  0  0  0  0  0  0
   -6.1750    1.7291   -2.2147 H   0  0  0  0  0  0  0  0  0  0  0  0
   -4.0332    2.8319   -2.3459 H   0  0  0  0  0  0  0  0  0  0  0  0
   -3.2092    2.9253   -0.7888 H   0  0  0  0  0  0  0  0  0  0  0  0
   -2.6917    1.7368   -2.0095 H   0  0  0  0  0  0  0  0  0  0  0  0
    6.1823   -1.4946    2.1799 H   0  0  0  0  0  0  0  0  0  0  0  0
    2.6970   -1.5200    1.9665 H   0  0  0  0  0  0  0  0  0  0  0  0
    3.2295   -2.6751    0.7203 H   0  0  0  0  0  0  0  0  0  0  0  0
    4.0462   -2.6116    2.2827 H   0  0  0  0  0  0  0  0  0  0  0  0
  1  2  1  0
  2  3  2  0
  3  4  1  0
  4  5  2  0
  4  6  1  0
  6  7  1  0
  7  8  1  0
  8  9  1  0
  9 10  1  0
 10 11  2  0
 10 12  1  0
 12 13  2  0
 13 14  1  0
 13 15  1  0
 15 16  1  0
 16 17  2  0
 16 18  1  0
 18 19  2  0
 19 20  1  0
  3 21  1  0
 21 22  2  0
 22 23  1  0
 23 24  2  0
 23 25  1  0
 21 26  1  0
 25  2  1  0
 19 12  1  0
  1 27  1  0
  1 28  1  0
  1 29  1  0
  6 30  1  0
  7 31  1  0
  7 32  1  0
  8 33  1  0
  8 34  1  0
  9 35  1  0
 14 36  1  0
 14 37  1  0
 14 38  1  0
 18 39  1  0
 20 40  1  0
 20 41  1  0
 20 42  1  0
 22 43  1  0
 26 44  1  0
 26 45  1  0
 26 46  1  0
M  END
>  <Unnamed: 0>  (175) 
1043

>  <ID>  (175) 
TRAIN_1043

>  <Canonical_Smiles>  (175) 
CC1=C(C(=O)NCCNC(=O)C2=C(C)OC(=O)C=C2C)C(=CC(=O)O1)C

>  <Inhibition>  (175) 
0.5

>  <TDC_conf_true_inhibitor>  (175) 
0

>  <TDC_conf_non_inhibitor>  (175) 
1

>  <split>  (175) 
1

$$$$
175
     RDKit          3D

 64 68  0  0  0  0  0  0  0  0999 V2000
   -6.9361    2.6226    1.3438 C   0  0  0  0  0  0  0  0  0  0  0  0
   -7.6479    1.6009    0.5339 C   0  0  0  0  0  0  0  0  0  0  0  0
   -8.6180    1.9658   -0.3117 N   0  0  0  0  0  0  0  0  0  0  0  0
   -9.0330    0.8136   -0.8544 N   0  0  0  0  0  0  0  0  0  0  0  0
   -8.3494   -0.2821   -0.4066 C   0  0  0  0  0  0  0  0  0  0  0  0
   -8.6499   -1.6492   -0.8911 C   0  0  0  0  0  0  0  0  0  0  0  0
   -7.4358    0.1931    0.5195 C   0  0  0  0  0  0  0  0  0  0  0  0
   -6.4445   -0.5729    1.3170 C   0  0  0  0  0  0  0  0  0  0  0  0
   -5.1923   -0.5587    0.6003 N   0  0  0  0  0  0  0  0  0  0  0  0
   -4.0304   -0.9771    1.2045 C   0  0  0  0  0  0  0  0  0  0  0  0
   -3.9913   -1.3586    2.3698 O   0  0  0  0  0  0  0  0  0  0  0  0
   -2.8098   -0.9374    0.2910 C   0  0  0  0  0  0  0  0  0  0  0  0
   -1.5732   -1.4798    1.0095 C   0  0  0  0  0  0  0  0  0  0  0  0
   -0.3246   -1.4098    0.1357 C   0  0  0  0  0  0  0  0  0  0  0  0
   -0.1257   -0.0906   -0.4644 N   0  0  0  0  0  0  0  0  0  0  0  0
   -1.2922    0.5397   -1.0698 C   0  0  0  0  0  0  0  0  0  0  0  0
   -2.5261    0.4912   -0.1803 C   0  0  0  0  0  0  0  0  0  0  0  0
    1.1319    0.3955   -0.8653 C   0  0  0  0  0  0  0  0  0  0  0  0
    1.2513    1.5082   -1.3821 O   0  0  0  0  0  0  0  0  0  0  0  0
    2.3292   -0.4389   -0.6623 C   0  0  0  0  0  0  0  0  0  0  0  0
    2.3628   -1.8303   -0.6957 N   0  0  0  0  0  0  0  0  0  0  0  0
    3.6214   -2.1702   -0.5251 C   0  0  0  0  0  0  0  0  0  0  0  0
    4.4074   -1.0710   -0.4087 N   0  0  0  0  0  0  0  0  0  0  0  0
    5.8365   -1.0116   -0.1884 C   0  0  0  0  0  0  0  0  0  0  0  0
    6.3378    0.4024   -0.5022 C   0  0  0  0  0  0  0  0  0  0  0  0
    5.4909    1.3594    0.1576 O   0  0  0  0  0  0  0  0  0  0  0  0
    4.1769    1.4144   -0.4228 C   0  0  0  0  0  0  0  0  0  0  0  0
    3.6180    0.0420   -0.4910 C   0  0  0  0  0  0  0  0  0  0  0  0
    7.7715    0.5772   -0.0368 C   0  0  0  0  0  0  0  0  0  0  0  0
    8.8315    0.3056   -0.9197 C   0  0  0  0  0  0  0  0  0  0  0  0
   10.1555    0.4363   -0.4971 C   0  0  0  0  0  0  0  0  0  0  0  0
   10.4242    0.8343    0.8074 C   0  0  0  0  0  0  0  0  0  0  0  0
   11.6961    0.9644    1.2087 F   0  0  0  0  0  0  0  0  0  0  0  0
    9.3938    1.1030    1.6990 C   0  0  0  0  0  0  0  0  0  0  0  0
    8.0691    0.9738    1.2786 C   0  0  0  0  0  0  0  0  0  0  0  0
   -5.8507    2.4958    1.2561 H   0  0  0  0  0  0  0  0  0  0  0  0
   -7.1831    3.6406    1.0177 H   0  0  0  0  0  0  0  0  0  0  0  0
   -7.2118    2.5270    2.3995 H   0  0  0  0  0  0  0  0  0  0  0  0
   -9.7887    0.8490   -1.5309 H   0  0  0  0  0  0  0  0  0  0  0  0
   -9.1524   -1.6286   -1.8637 H   0  0  0  0  0  0  0  0  0  0  0  0
   -7.7280   -2.2301   -1.0026 H   0  0  0  0  0  0  0  0  0  0  0  0
   -9.3005   -2.1688   -0.1807 H   0  0  0  0  0  0  0  0  0  0  0  0
   -6.3021   -0.1348    2.3110 H   0  0  0  0  0  0  0  0  0  0  0  0
   -6.7528   -1.6158    1.4512 H   0  0  0  0  0  0  0  0  0  0  0  0
   -5.2230   -0.4431   -0.4040 H   0  0  0  0  0  0  0  0  0  0  0  0
   -3.0273   -1.5773   -0.5749 H   0  0  0  0  0  0  0  0  0  0  0  0
   -1.7395   -2.5161    1.3277 H   0  0  0  0  0  0  0  0  0  0  0  0
   -1.3962   -0.8987    1.9248 H   0  0  0  0  0  0  0  0  0  0  0  0
    0.5262   -1.6643    0.7712 H   0  0  0  0  0  0  0  0  0  0  0  0
   -0.3850   -2.1384   -0.6799 H   0  0  0  0  0  0  0  0  0  0  0  0
   -1.4869    0.0137   -2.0125 H   0  0  0  0  0  0  0  0  0  0  0  0
   -1.0805    1.5835   -1.3247 H   0  0  0  0  0  0  0  0  0  0  0  0
   -3.3790    0.9016   -0.7336 H   0  0  0  0  0  0  0  0  0  0  0  0
   -2.3760    1.1441    0.6900 H   0  0  0  0  0  0  0  0  0  0  0  0
    4.0023   -3.1824   -0.4814 H   0  0  0  0  0  0  0  0  0  0  0  0
    5.9884   -1.2716    0.8659 H   0  0  0  0  0  0  0  0  0  0  0  0
    6.3209   -1.7657   -0.8172 H   0  0  0  0  0  0  0  0  0  0  0  0
    6.2936    0.6037   -1.5820 H   0  0  0  0  0  0  0  0  0  0  0  0
    4.2397    1.8695   -1.4179 H   0  0  0  0  0  0  0  0  0  0  0  0
    3.5627    2.0578    0.2139 H   0  0  0  0  0  0  0  0  0  0  0  0
    8.6334   -0.0032   -1.9442 H   0  0  0  0  0  0  0  0  0  0  0  0
   10.9787    0.2351   -1.1763 H   0  0  0  0  0  0  0  0  0  0  0  0
    9.6263    1.4167    2.7120 H   0  0  0  0  0  0  0  0  0  0  0  0
    7.2659    1.1957    1.9806 H   0  0  0  0  0  0  0  0  0  0  0  0
  1  2  1  0
  2  3  2  0
  3  4  1  0
  4  5  1  0
  5  6  1  0
  5  7  2  0
  7  8  1  0
  8  9  1  0
  9 10  1  0
 10 11  2  0
 10 12  1  0
 12 13  1  0
 13 14  1  0
 14 15  1  0
 15 16  1  0
 16 17  1  0
 15 18  1  0
 18 19  2  0
 18 20  1  0
 20 21  1  0
 21 22  2  0
 22 23  1  0
 23 24  1  0
 24 25  1  0
 25 26  1  0
 26 27  1  0
 27 28  1  0
 25 29  1  0
 29 30  2  0
 30 31  1  0
 31 32  2  0
 32 33  1  0
 32 34  1  0
 34 35  2  0
  7  2  1  0
 17 12  1  0
 28 20  2  0
 28 23  1  0
 35 29  1  0
  1 36  1  0
  1 37  1  0
  1 38  1  0
  4 39  1  0
  6 40  1  0
  6 41  1  0
  6 42  1  0
  8 43  1  0
  8 44  1  0
  9 45  1  0
 12 46  1  0
 13 47  1  0
 13 48  1  0
 14 49  1  0
 14 50  1  0
 16 51  1  0
 16 52  1  0
 17 53  1  0
 17 54  1  0
 22 55  1  0
 24 56  1  0
 24 57  1  0
 25 58  1  0
 27 59  1  0
 27 60  1  0
 30 61  1  0
 31 62  1  0
 34 63  1  0
 35 64  1  0
M  END
>  <Unnamed: 0>  (176) 
1056

>  <ID>  (176) 
TRAIN_1056

>  <Canonical_Smiles>  (176) 
Cc1n[nH]c(C)c1CNC(=O)C2CCN(CC2)C(=O)c3ncn4CC(OCc34)c5ccc(F)cc5

>  <Inhibition>  (176) 
60.3

>  <TDC_conf_true_inhibitor>  (176) 
1

>  <TDC_conf_non_inhibitor>  (176) 
0

>  <split>  (176) 
1

$$$$
176
     RDKit          3D

 58 62  0  0  0  0  0  0  0  0999 V2000
    1.1077    0.1938    3.9045 C   0  0  0  0  0  0  0  0  0  0  0  0
    2.1200    0.0134    2.8406 C   0  0  0  0  0  0  0  0  0  0  0  0
    2.1768    0.4256    1.5747 C   0  0  0  0  0  0  0  0  0  0  0  0
    1.1507    1.2430    0.9150 C   0  0  0  0  0  0  0  0  0  0  0  0
    1.3572    2.4433    0.7659 O   0  0  0  0  0  0  0  0  0  0  0  0
    0.0051    0.5986    0.4761 N   0  0  0  0  0  0  0  0  0  0  0  0
   -0.2944   -0.8748    0.7337 C   0  0  0  0  0  0  0  0  0  0  0  0
   -1.5870   -1.1048    0.0230 C   0  0  1  0  0  0  0  0  0  0  0  0
   -1.4015   -0.6343   -1.4262 C   0  0  0  0  0  0  0  0  0  0  0  0
   -1.9833    0.7403   -1.2732 C   0  0  2  0  0  0  0  0  0  0  0  0
   -1.0746    1.4662   -0.1817 C   0  0  0  0  0  0  0  0  0  0  0  0
   -3.5280    0.4958   -0.9011 C   0  0  1  0  0  0  0  0  0  0  0  0
   -4.3939    0.8199   -2.1321 C   0  0  0  0  0  0  0  0  0  0  0  0
   -5.8599    0.3992   -1.9904 C   0  0  0  0  0  0  0  0  0  0  0  0
   -6.2057   -0.1615   -0.6195 C   0  0  0  0  0  0  0  0  0  0  0  0
   -5.2329   -1.2482   -0.2221 C   0  0  0  0  0  0  0  0  0  0  0  0
   -5.6016   -2.3083    0.2734 O   0  0  0  0  0  0  0  0  0  0  0  0
   -3.8986   -0.9186   -0.4254 N   0  0  0  0  0  0  0  0  0  0  0  0
   -2.8530   -1.8882    0.0769 C   0  0  0  0  0  0  0  0  0  0  0  0
    3.4776    0.1088    0.9325 C   0  0  0  0  0  0  0  0  0  0  0  0
    4.3361    1.3519    0.6370 C   0  0  0  0  0  0  0  0  0  0  0  0
    5.6855    0.9866    0.0161 C   0  0  0  0  0  0  0  0  0  0  0  0
    5.5120    0.1274   -1.2317 C   0  0  0  0  0  0  0  0  0  0  0  0
    4.6884   -1.1224   -0.9416 C   0  0  0  0  0  0  0  0  0  0  0  0
    3.3353   -0.7800   -0.3140 C   0  0  0  0  0  0  0  0  0  0  0  0
    4.1432   -0.6595    1.9551 O   0  0  0  0  0  0  0  0  0  0  0  0
    3.3786   -0.6966    3.0795 C   0  0  0  0  0  0  0  0  0  0  0  0
    3.6828   -1.2506    4.1198 O   0  0  0  0  0  0  0  0  0  0  0  0
    0.2707    0.8156    3.5724 H   0  0  0  0  0  0  0  0  0  0  0  0
    1.5531    0.6801    4.7784 H   0  0  0  0  0  0  0  0  0  0  0  0
    0.7053   -0.7743    4.2181 H   0  0  0  0  0  0  0  0  0  0  0  0
   -0.3809   -1.0322    1.8127 H   0  0  0  0  0  0  0  0  0  0  0  0
    0.5240   -1.4862    0.3468 H   0  0  0  0  0  0  0  0  0  0  0  0
   -2.0578   -0.3450    0.6782 H   0  0  0  0  0  0  0  0  0  0  0  0
   -1.9409   -1.2403   -2.1645 H   0  0  0  0  0  0  0  0  0  0  0  0
   -0.3559   -0.6142   -1.7574 H   0  0  0  0  0  0  0  0  0  0  0  0
   -1.9122    1.3184   -2.2016 H   0  0  0  0  0  0  0  0  0  0  0  0
   -1.6879    1.8830    0.6265 H   0  0  0  0  0  0  0  0  0  0  0  0
   -0.5749    2.3127   -0.6675 H   0  0  0  0  0  0  0  0  0  0  0  0
   -3.8097    1.1766   -0.0876 H   0  0  0  0  0  0  0  0  0  0  0  0
   -3.9827    0.3134   -3.0160 H   0  0  0  0  0  0  0  0  0  0  0  0
   -4.3374    1.8953   -2.3441 H   0  0  0  0  0  0  0  0  0  0  0  0
   -6.5151    1.2482   -2.2200 H   0  0  0  0  0  0  0  0  0  0  0  0
   -6.0735   -0.3650   -2.7501 H   0  0  0  0  0  0  0  0  0  0  0  0
   -7.2167   -0.5819   -0.6393 H   0  0  0  0  0  0  0  0  0  0  0  0
   -6.1868    0.6217    0.1463 H   0  0  0  0  0  0  0  0  0  0  0  0
   -2.8554   -2.7688   -0.5734 H   0  0  0  0  0  0  0  0  0  0  0  0
   -3.1177   -2.2032    1.0925 H   0  0  0  0  0  0  0  0  0  0  0  0
    4.5255    1.9145    1.5602 H   0  0  0  0  0  0  0  0  0  0  0  0
    3.8094    2.0237   -0.0518 H   0  0  0  0  0  0  0  0  0  0  0  0
    6.2290    1.9029   -0.2418 H   0  0  0  0  0  0  0  0  0  0  0  0
    6.2992    0.4501    0.7501 H   0  0  0  0  0  0  0  0  0  0  0  0
    6.4953   -0.1613   -1.6198 H   0  0  0  0  0  0  0  0  0  0  0  0
    5.0196    0.7162   -2.0152 H   0  0  0  0  0  0  0  0  0  0  0  0
    5.2502   -1.7819   -0.2686 H   0  0  0  0  0  0  0  0  0  0  0  0
    4.5293   -1.6816   -1.8708 H   0  0  0  0  0  0  0  0  0  0  0  0
    2.7126   -0.2789   -1.0659 H   0  0  0  0  0  0  0  0  0  0  0  0
    2.8399   -1.7240   -0.0552 H   0  0  0  0  0  0  0  0  0  0  0  0
  1  2  1  0
  2  3  2  0
  3  4  1  0
  4  5  2  0
  4  6  1  0
  6  7  1  0
  7  8  1  0
  8  9  1  0
  9 10  1  0
 10 11  1  0
 10 12  1  0
 12 13  1  0
 13 14  1  0
 14 15  1  0
 15 16  1  0
 16 17  2  0
 16 18  1  0
 18 19  1  0
  3 20  1  0
 20 21  1  0
 21 22  1  0
 22 23  1  0
 23 24  1  0
 24 25  1  0
 20 26  1  0
 26 27  1  0
 27 28  2  0
 27  2  1  0
 11  6  1  0
 19  8  1  0
 18 12  1  0
 25 20  1  0
  1 29  1  0
  1 30  1  0
  1 31  1  0
  7 32  1  0
  7 33  1  0
  8 34  1  1
  9 35  1  0
  9 36  1  0
 10 37  1  6
 11 38  1  0
 11 39  1  0
 12 40  1  1
 13 41  1  0
 13 42  1  0
 14 43  1  0
 14 44  1  0
 15 45  1  0
 15 46  1  0
 19 47  1  0
 19 48  1  0
 21 49  1  0
 21 50  1  0
 22 51  1  0
 22 52  1  0
 23 53  1  0
 23 54  1  0
 24 55  1  0
 24 56  1  0
 25 57  1  0
 25 58  1  0
M  END
>  <Unnamed: 0>  (177) 
1075

>  <ID>  (177) 
TRAIN_1075

>  <Canonical_Smiles>  (177) 
CC1=C(C(=O)N2C[C@H]3C[C@H](C2)[C@H]4CCCC(=O)N4C3)C5(CCCCC5)OC1=O

>  <Inhibition>  (177) 
16.2

>  <TDC_conf_true_inhibitor>  (177) 
0

>  <TDC_conf_non_inhibitor>  (177) 
1

>  <split>  (177) 
1

$$$$
177
     RDKit          3D

 59 62  0  0  0  0  0  0  0  0999 V2000
    3.3379   -3.0701   -0.6079 C   0  0  0  0  0  0  0  0  0  0  0  0
    2.8701   -1.9614    0.3342 C   0  0  0  0  0  0  0  0  0  0  0  0
    3.9760   -0.9429    0.6583 C   0  0  0  0  0  0  0  0  0  0  0  0
    4.6207   -0.2830   -0.5657 C   0  0  0  0  0  0  0  0  0  0  0  0
    5.6290    0.7646   -0.1613 C   0  0  0  0  0  0  0  0  0  0  0  0
    5.2264    2.0869    0.0715 C   0  0  0  0  0  0  0  0  0  0  0  0
    6.1573    3.0509    0.4620 C   0  0  0  0  0  0  0  0  0  0  0  0
    7.4963    2.7021    0.6272 C   0  0  0  0  0  0  0  0  0  0  0  0
    7.9057    1.3885    0.4045 C   0  0  0  0  0  0  0  0  0  0  0  0
    6.9766    0.4228    0.0144 C   0  0  0  0  0  0  0  0  0  0  0  0
    1.6816   -1.3035   -0.1970 N   0  0  0  0  0  0  0  0  0  0  0  0
    0.4253   -1.8587   -0.0691 C   0  0  0  0  0  0  0  0  0  0  0  0
    0.1862   -2.8953    0.5345 O   0  0  0  0  0  0  0  0  0  0  0  0
   -0.6645   -1.1083   -0.7195 C   0  0  0  0  0  0  0  0  0  0  0  0
   -0.5250   -0.6802   -2.0432 C   0  0  0  0  0  0  0  0  0  0  0  0
   -1.5653    0.0223   -2.6352 C   0  0  0  0  0  0  0  0  0  0  0  0
   -1.4267    0.4827   -4.0590 C   0  0  0  0  0  0  0  0  0  0  0  0
   -2.7236    0.3240   -2.0139 N   0  0  0  0  0  0  0  0  0  0  0  0
   -2.8381   -0.1290   -0.7423 C   0  0  0  0  0  0  0  0  0  0  0  0
   -1.8627   -0.8293   -0.0399 C   0  0  0  0  0  0  0  0  0  0  0  0
   -2.4212   -1.0275    1.2446 C   0  0  0  0  0  0  0  0  0  0  0  0
   -1.8281   -1.7060    2.4258 C   0  0  0  0  0  0  0  0  0  0  0  0
   -3.6413   -0.4944    1.3488 N   0  0  0  0  0  0  0  0  0  0  0  0
   -3.9195    0.0379    0.1284 N   0  0  0  0  0  0  0  0  0  0  0  0
   -5.2085    0.6181   -0.1403 C   0  0  0  0  0  0  0  0  0  0  0  0
   -5.6473    0.6751   -1.4789 C   0  0  0  0  0  0  0  0  0  0  0  0
   -6.9156    1.1503   -1.8064 C   0  0  0  0  0  0  0  0  0  0  0  0
   -7.7751    1.5651   -0.8007 C   0  0  0  0  0  0  0  0  0  0  0  0
   -7.3618    1.5303    0.5340 C   0  0  0  0  0  0  0  0  0  0  0  0
   -8.5303    2.0499    1.7042 Cl  0  0  0  0  0  0  0  0  0  0  0  0
   -6.0670    1.0899    0.8944 C   0  0  0  0  0  0  0  0  0  0  0  0
   -5.6382    1.1480    2.3418 C   0  0  0  0  0  0  0  0  0  0  0  0
    3.5199   -2.6918   -1.6195 H   0  0  0  0  0  0  0  0  0  0  0  0
    4.2575   -3.5355   -0.2387 H   0  0  0  0  0  0  0  0  0  0  0  0
    2.5772   -3.8540   -0.6931 H   0  0  0  0  0  0  0  0  0  0  0  0
    2.5780   -2.4341    1.2809 H   0  0  0  0  0  0  0  0  0  0  0  0
    4.7575   -1.4491    1.2407 H   0  0  0  0  0  0  0  0  0  0  0  0
    3.5591   -0.1684    1.3160 H   0  0  0  0  0  0  0  0  0  0  0  0
    5.1216   -1.0330   -1.1890 H   0  0  0  0  0  0  0  0  0  0  0  0
    3.8610    0.1826   -1.2044 H   0  0  0  0  0  0  0  0  0  0  0  0
    4.1847    2.3749   -0.0470 H   0  0  0  0  0  0  0  0  0  0  0  0
    5.8374    4.0746    0.6401 H   0  0  0  0  0  0  0  0  0  0  0  0
    8.2203    3.4530    0.9322 H   0  0  0  0  0  0  0  0  0  0  0  0
    8.9494    1.1155    0.5369 H   0  0  0  0  0  0  0  0  0  0  0  0
    7.3117   -0.5990   -0.1505 H   0  0  0  0  0  0  0  0  0  0  0  0
    1.7880   -0.4319   -0.6990 H   0  0  0  0  0  0  0  0  0  0  0  0
    0.3718   -0.9113   -2.6097 H   0  0  0  0  0  0  0  0  0  0  0  0
   -2.3196    1.0290   -4.3812 H   0  0  0  0  0  0  0  0  0  0  0  0
   -0.5648    1.1500   -4.1584 H   0  0  0  0  0  0  0  0  0  0  0  0
   -1.2957   -0.3782   -4.7227 H   0  0  0  0  0  0  0  0  0  0  0  0
   -0.8015   -1.3669    2.5957 H   0  0  0  0  0  0  0  0  0  0  0  0
   -2.3980   -1.4906    3.3365 H   0  0  0  0  0  0  0  0  0  0  0  0
   -1.8268   -2.7910    2.2825 H   0  0  0  0  0  0  0  0  0  0  0  0
   -5.0365    0.3097   -2.3000 H   0  0  0  0  0  0  0  0  0  0  0  0
   -7.2374    1.1729   -2.8445 H   0  0  0  0  0  0  0  0  0  0  0  0
   -8.7716    1.9142   -1.0598 H   0  0  0  0  0  0  0  0  0  0  0  0
   -5.7460    0.1659    2.8123 H   0  0  0  0  0  0  0  0  0  0  0  0
   -4.6074    1.5067    2.4308 H   0  0  0  0  0  0  0  0  0  0  0  0
   -6.2189    1.8659    2.9276 H   0  0  0  0  0  0  0  0  0  0  0  0
  1  2  1  0
  2  3  1  0
  3  4  1  0
  4  5  1  0
  5  6  2  0
  6  7  1  0
  7  8  2  0
  8  9  1  0
  9 10  2  0
  2 11  1  0
 11 12  1  0
 12 13  2  0
 12 14  1  0
 14 15  2  0
 15 16  1  0
 16 17  1  0
 16 18  2  0
 18 19  1  0
 19 20  2  0
 20 21  1  0
 21 22  1  0
 21 23  2  0
 23 24  1  0
 24 25  1  0
 25 26  2  0
 26 27  1  0
 27 28  2  0
 28 29  1  0
 29 30  1  0
 29 31  2  0
 31 32  1  0
 10  5  1  0
 20 14  1  0
 24 19  1  0
 31 25  1  0
  1 33  1  0
  1 34  1  0
  1 35  1  0
  2 36  1  0
  3 37  1  0
  3 38  1  0
  4 39  1  0
  4 40  1  0
  6 41  1  0
  7 42  1  0
  8 43  1  0
  9 44  1  0
 10 45  1  0
 11 46  1  0
 15 47  1  0
 17 48  1  0
 17 49  1  0
 17 50  1  0
 22 51  1  0
 22 52  1  0
 22 53  1  0
 26 54  1  0
 27 55  1  0
 28 56  1  0
 32 57  1  0
 32 58  1  0
 32 59  1  0
M  END
>  <Unnamed: 0>  (178) 
1088

>  <ID>  (178) 
TRAIN_1088

>  <Canonical_Smiles>  (178) 
CC(CCc1ccccc1)NC(=O)c2cc(C)nc3c2c(C)nn3c4cccc(Cl)c4C

>  <Inhibition>  (178) 
33.1

>  <TDC_conf_true_inhibitor>  (178) 
1

>  <TDC_conf_non_inhibitor>  (178) 
0

>  <split>  (178) 
1

$$$$
178
     RDKit          3D

 60 62  0  0  0  0  0  0  0  0999 V2000
    0.0000    0.0000    0.0000 I   0  0  0  0  0 15  0  0  0  0  0  0
    5.2409    2.9655    2.8384 C   0  0  0  0  0  0  0  0  0  0  0  0
    4.2549    2.2566    1.9741 C   0  0  0  0  0  0  0  0  0  0  0  0
    3.0923    2.8787    1.5678 C   0  0  0  0  0  0  0  0  0  0  0  0
    2.1707    2.2307    0.7658 C   0  0  0  0  0  0  0  0  0  0  0  0
    2.3715    0.9274    0.3329 C   0  0  0  0  0  0  0  0  0  0  0  0
    1.4404    0.2557   -0.4843 N   0  0  0  0  0  0  0  0  0  0  0  0
    1.5954    0.3425   -1.9176 C   0  0  0  0  0  0  0  0  0  0  0  0
    2.4563    1.1243   -2.3955 O   0  0  0  0  0  0  0  0  0  0  0  0
    0.7781   -0.4548   -2.8360 C   0  0  0  0  0  0  0  0  0  0  0  0
    0.4328   -1.7024   -2.1545 N   0  0  0  0  0  4  0  0  0  0  0  0
    0.3311   -2.8275   -2.9021 C   0  0  0  0  0  0  0  0  0  0  0  0
    0.0137   -4.0547   -2.3765 C   0  0  0  0  0  0  0  0  0  0  0  0
   -0.2121   -4.1406   -1.0180 C   0  0  0  0  0  0  0  0  0  0  0  0
   -0.1043   -2.9853   -0.2718 C   0  0  0  0  0  0  0  0  0  0  0  0
    0.2166   -1.7648   -0.8279 C   0  0  0  0  0  0  0  0  0  0  0  0
    0.3303   -0.5221   -0.0121 C   0  0  0  0  0  0  0  0  0  0  0  0
    0.5816   -0.8890    1.4289 C   0  0  0  0  0  0  0  0  0  0  0  0
   -0.9585    0.2082   -0.1776 C   0  0  0  0  0  0  0  0  0  0  0  0
   -1.0415    1.3590   -0.6708 O   0  0  0  0  0  0  0  0  0  0  0  0
   -2.1654   -0.4052    0.2346 N   0  0  0  0  0  0  0  0  0  0  0  0
   -3.3760    0.3141    0.0648 C   0  0  0  0  0  0  0  0  0  0  0  0
   -4.0898    0.1908   -1.0973 C   0  0  0  0  0  0  0  0  0  0  0  0
   -3.6311   -0.6756   -2.1859 C   0  0  0  0  0  0  0  0  0  0  0  0
   -5.2591    0.9156   -1.2020 C   0  0  0  0  0  0  0  0  0  0  0  0
   -5.7017    1.7365   -0.1809 C   0  0  0  0  0  0  0  0  0  0  0  0
   -4.9732    1.8514    0.9838 C   0  0  0  0  0  0  0  0  0  0  0  0
   -3.8009    1.1363    1.1112 C   0  0  0  0  0  0  0  0  0  0  0  0
   -3.0388    1.2801    2.3754 C   0  0  0  0  0  0  0  0  0  0  0  0
    3.5353    0.3082    0.7411 C   0  0  0  0  0  0  0  0  0  0  0  0
    3.7964   -1.0837    0.3058 C   0  0  0  0  0  0  0  0  0  0  0  0
    4.4505    0.9615    1.5417 C   0  0  0  0  0  0  0  0  0  0  0  0
    4.9183    2.8980    3.8923 H   0  0  0  0  0  0  0  0  0  0  0  0
    6.2697    2.5845    2.7088 H   0  0  0  0  0  0  0  0  0  0  0  0
    5.2864    4.0568    2.5968 H   0  0  0  0  0  0  0  0  0  0  0  0
    2.8798    3.9073    1.8782 H   0  0  0  0  0  0  0  0  0  0  0  0
    1.2516    2.6986    0.4346 H   0  0  0  0  0  0  0  0  0  0  0  0
   -0.1183    0.0873   -3.1775 H   0  0  0  0  0  0  0  0  0  0  0  0
    1.3798   -0.6807   -3.7473 H   0  0  0  0  0  0  0  0  0  0  0  0
    0.5084   -2.7527   -3.9607 H   0  0  0  0  0  0  0  0  0  0  0  0
   -0.0675   -4.9548   -2.9746 H   0  0  0  0  0  0  0  0  0  0  0  0
   -0.4644   -5.0838   -0.5605 H   0  0  0  0  0  0  0  0  0  0  0  0
   -0.2809   -3.0625    0.7787 H   0  0  0  0  0  0  0  0  0  0  0  0
   -0.3614   -1.1785    1.9576 H   0  0  0  0  0  0  0  0  0  0  0  0
    1.0892   -0.0328    1.9076 H   0  0  0  0  0  0  0  0  0  0  0  0
    1.2177   -1.8111    1.4267 H   0  0  0  0  0  0  0  0  0  0  0  0
   -2.2000   -1.3688    0.6601 H   0  0  0  0  0  0  0  0  0  0  0  0
   -2.5721   -0.9229   -2.1621 H   0  0  0  0  0  0  0  0  0  0  0  0
   -3.7997   -0.1192   -3.1560 H   0  0  0  0  0  0  0  0  0  0  0  0
   -4.2066   -1.6408   -2.2586 H   0  0  0  0  0  0  0  0  0  0  0  0
   -5.8279    0.8270   -2.1093 H   0  0  0  0  0  0  0  0  0  0  0  0
   -6.6171    2.3063   -0.2587 H   0  0  0  0  0  0  0  0  0  0  0  0
   -5.3491    2.5068    1.7703 H   0  0  0  0  0  0  0  0  0  0  0  0
   -2.5794    2.2631    2.5018 H   0  0  0  0  0  0  0  0  0  0  0  0
   -3.7856    1.1436    3.2104 H   0  0  0  0  0  0  0  0  0  0  0  0
   -2.2717    0.4993    2.5136 H   0  0  0  0  0  0  0  0  0  0  0  0
    3.7026   -1.7257    1.2088 H   0  0  0  0  0  0  0  0  0  0  0  0
    3.0751   -1.4250   -0.4301 H   0  0  0  0  0  0  0  0  0  0  0  0
    4.8335   -1.2247   -0.0593 H   0  0  0  0  0  0  0  0  0  0  0  0
    5.3534    0.4682    1.8530 H   0  0  0  0  0  0  0  0  0  0  0  0
  2  3  1  0
  3  4  2  0
  4  5  1  0
  5  6  2  0
  6  7  1  0
  7  8  1  0
  8  9  2  0
  8 10  1  0
 10 11  1  0
 11 12  2  0
 12 13  1  0
 13 14  2  0
 14 15  1  0
 15 16  2  0
 16 17  1  0
 17 18  1  0
 17 19  1  0
 19 20  2  0
 19 21  1  0
 21 22  1  0
 22 23  2  0
 23 24  1  0
 23 25  1  0
 25 26  2  0
 26 27  1  0
 27 28  2  0
 28 29  1  0
  6 30  1  0
 30 31  1  0
 30 32  2  0
 32  3  1  0
 17  7  1  0
 16 11  1  0
 28 22  1  0
  2 33  1  0
  2 34  1  0
  2 35  1  0
  4 36  1  0
  5 37  1  0
 10 38  1  0
 10 39  1  0
 12 40  1  0
 13 41  1  0
 14 42  1  0
 15 43  1  0
 18 44  1  0
 18 45  1  0
 18 46  1  0
 21 47  1  0
 24 48  1  0
 24 49  1  0
 24 50  1  0
 25 51  1  0
 26 52  1  0
 27 53  1  0
 29 54  1  0
 29 55  1  0
 29 56  1  0
 31 57  1  0
 31 58  1  0
 31 59  1  0
 32 60  1  0
M  CHG  2   1  -1  11   1
M  END
>  <Unnamed: 0>  (179) 
1089

>  <ID>  (179) 
TRAIN_1089

>  <Canonical_Smiles>  (179) 
[I-].Cc1ccc(N2C(=O)C[n+]3ccccc3C2(C)C(=O)Nc4c(C)cccc4C)c(C)c1

>  <Inhibition>  (179) 
27.7

>  <TDC_conf_true_inhibitor>  (179) 
1

>  <TDC_conf_non_inhibitor>  (179) 
0

>  <split>  (179) 
1

$$$$
179
     RDKit          3D

 63 67  0  0  0  0  0  0  0  0999 V2000
   10.9371    0.6655    0.5879 C   0  0  0  0  0  0  0  0  0  0  0  0
   10.7493   -0.0920   -0.7130 C   0  0  0  0  0  0  0  0  0  0  0  0
    9.4774    0.2321   -1.2974 O   0  0  0  0  0  0  0  0  0  0  0  0
    8.4076   -0.4927   -0.8465 C   0  0  0  0  0  0  0  0  0  0  0  0
    8.4776   -1.3953   -0.0224 O   0  0  0  0  0  0  0  0  0  0  0  0
    7.1589    0.0018   -1.5380 C   0  0  0  0  0  0  0  0  0  0  0  0
    5.9242   -0.7421   -1.1454 C   0  0  0  0  0  0  0  0  0  0  0  0
    5.6757   -2.0961   -1.2940 C   0  0  0  0  0  0  0  0  0  0  0  0
    4.0954   -2.4687   -0.7414 S   0  0  0  0  0  0  0  0  0  0  0  0
    3.8634   -0.8213   -0.3588 C   0  0  0  0  0  0  0  0  0  0  0  0
    2.6336   -0.5450    0.1684 N   0  0  0  0  0  0  0  0  0  0  0  0
    2.2707    0.7155    0.5907 C   0  0  0  0  0  0  0  0  0  0  0  0
    2.9705    1.7234    0.5544 O   0  0  0  0  0  0  0  0  0  0  0  0
    0.8387    0.8045    1.1150 C   0  0  0  0  0  0  0  0  0  0  0  0
    0.5510   -0.2098    2.2358 C   0  0  0  0  0  0  0  0  0  0  0  0
   -0.4818   -1.2506    1.8204 C   0  0  0  0  0  0  0  0  0  0  0  0
   -1.7720   -0.5876    1.3361 C   0  0  0  0  0  0  0  0  0  0  0  0
   -1.4973    0.5038    0.4018 N   0  0  0  0  0  0  0  0  0  0  0  0
   -0.1316    0.7160   -0.0706 C   0  0  0  0  0  0  0  0  0  0  0  0
   -2.5421    0.9217   -0.4272 C   0  0  0  0  0  0  0  0  0  0  0  0
   -2.2454    1.6132   -1.5697 N   0  0  0  0  0  0  0  0  0  0  0  0
   -3.2399    2.0512   -2.3680 C   0  0  0  0  0  0  0  0  0  0  0  0
   -4.5643    1.8974   -2.2072 N   0  0  0  0  0  0  0  0  0  0  0  0
   -4.8312    1.2169   -1.0816 C   0  0  0  0  0  0  0  0  0  0  0  0
   -3.9232    0.7066   -0.1689 C   0  0  0  0  0  0  0  0  0  0  0  0
   -4.5985    0.0605    0.8523 N   0  0  0  0  0  0  0  0  0  0  0  0
   -5.8858    0.1678    0.5723 C   0  0  0  0  0  0  0  0  0  0  0  0
   -6.9688   -0.4368    1.4100 C   0  0  0  0  0  0  0  0  0  0  0  0
   -8.3505   -0.6107    0.7761 C   0  0  0  0  0  0  0  0  0  0  0  0
   -8.3213   -1.0859   -0.6748 C   0  0  0  0  0  0  0  0  0  0  0  0
   -8.1212    0.0441   -1.6925 C   0  0  0  0  0  0  0  0  0  0  0  0
   -7.3262    1.2468   -1.1911 C   0  0  0  0  0  0  0  0  0  0  0  0
   -6.0644    0.8845   -0.5905 N   0  0  0  0  0  0  0  0  0  0  0  0
    4.8624   -0.0207   -0.6167 N   0  0  0  0  0  0  0  0  0  0  0  0
   11.9332    0.4844    1.0038 H   0  0  0  0  0  0  0  0  0  0  0  0
   10.1904    0.3646    1.3285 H   0  0  0  0  0  0  0  0  0  0  0  0
   10.8143    1.7412    0.4295 H   0  0  0  0  0  0  0  0  0  0  0  0
   10.8566   -1.1732   -0.5697 H   0  0  0  0  0  0  0  0  0  0  0  0
   11.5168    0.2152   -1.4304 H   0  0  0  0  0  0  0  0  0  0  0  0
    7.2993   -0.0906   -2.6203 H   0  0  0  0  0  0  0  0  0  0  0  0
    7.0392    1.0623   -1.2911 H   0  0  0  0  0  0  0  0  0  0  0  0
    6.3316   -2.8629   -1.6813 H   0  0  0  0  0  0  0  0  0  0  0  0
    2.0126   -1.3322    0.2688 H   0  0  0  0  0  0  0  0  0  0  0  0
    0.7393    1.8023    1.5648 H   0  0  0  0  0  0  0  0  0  0  0  0
    1.4633   -0.7077    2.5831 H   0  0  0  0  0  0  0  0  0  0  0  0
    0.1594    0.3339    3.1055 H   0  0  0  0  0  0  0  0  0  0  0  0
   -0.0695   -1.8776    1.0215 H   0  0  0  0  0  0  0  0  0  0  0  0
   -0.7036   -1.9187    2.6601 H   0  0  0  0  0  0  0  0  0  0  0  0
   -2.3869   -1.3681    0.8711 H   0  0  0  0  0  0  0  0  0  0  0  0
   -2.3137   -0.1916    2.2033 H   0  0  0  0  0  0  0  0  0  0  0  0
    0.1401   -0.0935   -0.7600 H   0  0  0  0  0  0  0  0  0  0  0  0
   -0.0304    1.6514   -0.6365 H   0  0  0  0  0  0  0  0  0  0  0  0
   -2.9274    2.6006   -3.2516 H   0  0  0  0  0  0  0  0  0  0  0  0
   -7.0716    0.1549    2.3270 H   0  0  0  0  0  0  0  0  0  0  0  0
   -6.6145   -1.4272    1.7251 H   0  0  0  0  0  0  0  0  0  0  0  0
   -8.8971   -1.3499    1.3756 H   0  0  0  0  0  0  0  0  0  0  0  0
   -8.9312    0.3160    0.8619 H   0  0  0  0  0  0  0  0  0  0  0  0
   -7.5385   -1.8447   -0.8015 H   0  0  0  0  0  0  0  0  0  0  0  0
   -9.2673   -1.5894   -0.9096 H   0  0  0  0  0  0  0  0  0  0  0  0
   -9.1055    0.4043   -2.0189 H   0  0  0  0  0  0  0  0  0  0  0  0
   -7.6402   -0.3744   -2.5862 H   0  0  0  0  0  0  0  0  0  0  0  0
   -7.8867    1.8203   -0.4435 H   0  0  0  0  0  0  0  0  0  0  0  0
   -7.1396    1.9320   -2.0251 H   0  0  0  0  0  0  0  0  0  0  0  0
  1  2  1  0
  2  3  1  0
  3  4  1  0
  4  5  2  0
  4  6  1  0
  6  7  1  0
  7  8  2  0
  8  9  1  0
  9 10  1  0
 10 11  1  0
 11 12  1  0
 12 13  2  0
 12 14  1  0
 14 15  1  0
 15 16  1  0
 16 17  1  0
 17 18  1  0
 18 19  1  0
 18 20  1  0
 20 21  2  0
 21 22  1  0
 22 23  2  0
 23 24  1  0
 24 25  2  0
 25 26  1  0
 26 27  2  0
 27 28  1  0
 28 29  1  0
 29 30  1  0
 30 31  1  0
 31 32  1  0
 32 33  1  0
 10 34  2  0
 34  7  1  0
 19 14  1  0
 25 20  1  0
 33 24  1  0
 33 27  1  0
  1 35  1  0
  1 36  1  0
  1 37  1  0
  2 38  1  0
  2 39  1  0
  6 40  1  0
  6 41  1  0
  8 42  1  0
 11 43  1  0
 14 44  1  0
 15 45  1  0
 15 46  1  0
 16 47  1  0
 16 48  1  0
 17 49  1  0
 17 50  1  0
 19 51  1  0
 19 52  1  0
 22 53  1  0
 28 54  1  0
 28 55  1  0
 29 56  1  0
 29 57  1  0
 30 58  1  0
 30 59  1  0
 31 60  1  0
 31 61  1  0
 32 62  1  0
 32 63  1  0
M  END
>  <Unnamed: 0>  (180) 
1091

>  <ID>  (180) 
TRAIN_1091

>  <Canonical_Smiles>  (180) 
CCOC(=O)Cc1csc(NC(=O)C2CCCN(C2)c3ncnc4c3nc5CCCCCn45)n1

>  <Inhibition>  (180) 
63.7

>  <TDC_conf_true_inhibitor>  (180) 
1

>  <TDC_conf_non_inhibitor>  (180) 
0

>  <split>  (180) 
1

$$$$
180
     RDKit          3D

 56 60  0  0  0  0  0  0  0  0999 V2000
    3.2882   -1.2679    5.3460 C   0  0  0  0  0  0  0  0  0  0  0  0
    2.8769    0.0064    4.8619 O   0  0  0  0  0  0  0  0  0  0  0  0
    2.8158    0.1594    3.5023 C   0  0  0  0  0  0  0  0  0  0  0  0
    2.4564    1.4402    3.0743 C   0  0  0  0  0  0  0  0  0  0  0  0
    2.3642    1.7376    1.7144 C   0  0  0  0  0  0  0  0  0  0  0  0
    2.6212    0.7461    0.7696 C   0  0  0  0  0  0  0  0  0  0  0  0
    2.9574   -0.5502    1.1807 C   0  0  0  0  0  0  0  0  0  0  0  0
    3.0716   -0.8312    2.5521 C   0  0  0  0  0  0  0  0  0  0  0  0
    3.2165   -1.6019    0.2118 C   0  0  0  0  0  0  0  0  0  0  0  0
    4.2668   -2.4899    0.3541 N   0  0  0  0  0  0  0  0  0  0  0  0
    4.1944   -3.2406   -0.7188 C   0  0  0  0  0  0  0  0  0  0  0  0
    5.0726   -4.3030   -1.1222 C   0  0  0  0  0  0  0  0  0  0  0  0
    4.9234   -4.9262   -2.2611 N   0  0  0  0  0  0  0  0  0  0  0  0
    3.8825   -4.5166   -3.0804 C   0  0  0  0  0  0  0  0  0  0  0  0
    3.0060   -3.5475   -2.7615 C   0  0  0  0  0  0  0  0  0  0  0  0
    3.1512   -2.9046   -1.5438 N   0  0  0  0  0  0  0  0  0  0  0  0
    2.4435   -1.9027   -0.9099 C   0  0  0  0  0  0  0  0  0  0  0  0
    1.2679   -1.3799   -1.3912 N   0  0  0  0  0  0  0  0  0  0  0  0
    0.0990   -2.2772   -1.4064 C   0  0  0  0  0  0  0  0  0  0  0  0
   -1.0922   -1.5799   -2.0603 C   0  0  0  0  0  0  0  0  0  0  0  0
   -1.6443   -0.4633   -1.1923 C   0  0  0  0  0  0  0  0  0  0  0  0
   -1.1665   -0.2080   -0.0915 O   0  0  0  0  0  0  0  0  0  0  0  0
   -2.6967    0.1981   -1.8046 N   0  0  0  0  0  0  0  0  0  0  0  0
   -3.4459    1.2747   -1.2830 C   0  0  0  0  0  0  0  0  0  0  0  0
   -4.3983    1.8598   -2.1330 C   0  0  0  0  0  0  0  0  0  0  0  0
   -5.1806    2.9336   -1.6983 C   0  0  0  0  0  0  0  0  0  0  0  0
   -5.0223    3.4265   -0.4051 C   0  0  0  0  0  0  0  0  0  0  0  0
   -5.8308    4.4706   -0.0381 O   0  0  0  0  0  0  0  0  0  0  0  0
   -5.8276    4.6572    1.3838 C   0  0  0  0  0  0  0  0  0  0  0  0
   -4.4099    4.6073    1.9307 C   0  0  0  0  0  0  0  0  0  0  0  0
   -3.8328    3.3151    1.7207 O   0  0  0  0  0  0  0  0  0  0  0  0
   -4.0653    2.8618    0.4427 C   0  0  0  0  0  0  0  0  0  0  0  0
   -3.2916    1.7812    0.0113 C   0  0  0  0  0  0  0  0  0  0  0  0
    4.3092   -1.5019    5.0228 H   0  0  0  0  0  0  0  0  0  0  0  0
    2.5857   -2.0505    5.0413 H   0  0  0  0  0  0  0  0  0  0  0  0
    3.2872   -1.2315    6.4403 H   0  0  0  0  0  0  0  0  0  0  0  0
    2.2517    2.2139    3.8089 H   0  0  0  0  0  0  0  0  0  0  0  0
    2.0916    2.7388    1.3929 H   0  0  0  0  0  0  0  0  0  0  0  0
    2.5676    0.9964   -0.2875 H   0  0  0  0  0  0  0  0  0  0  0  0
    3.3561   -1.8363    2.8461 H   0  0  0  0  0  0  0  0  0  0  0  0
    5.8935   -4.5948   -0.4474 H   0  0  0  0  0  0  0  0  0  0  0  0
    3.8055   -5.0314   -4.0346 H   0  0  0  0  0  0  0  0  0  0  0  0
    2.2041   -3.2271   -3.4114 H   0  0  0  0  0  0  0  0  0  0  0  0
    0.9749   -0.5495   -0.8570 H   0  0  0  0  0  0  0  0  0  0  0  0
   -0.1446   -2.5812   -0.3823 H   0  0  0  0  0  0  0  0  0  0  0  0
    0.3213   -3.1844   -1.9758 H   0  0  0  0  0  0  0  0  0  0  0  0
   -1.8942   -2.3094   -2.2170 H   0  0  0  0  0  0  0  0  0  0  0  0
   -0.8032   -1.1650   -3.0326 H   0  0  0  0  0  0  0  0  0  0  0  0
   -2.9252   -0.0812   -2.7519 H   0  0  0  0  0  0  0  0  0  0  0  0
   -4.5432    1.4953   -3.1478 H   0  0  0  0  0  0  0  0  0  0  0  0
   -5.9152    3.3807   -2.3636 H   0  0  0  0  0  0  0  0  0  0  0  0
   -6.2786    5.6327    1.5911 H   0  0  0  0  0  0  0  0  0  0  0  0
   -6.4604    3.8835    1.8379 H   0  0  0  0  0  0  0  0  0  0  0  0
   -4.4126    4.7959    3.0085 H   0  0  0  0  0  0  0  0  0  0  0  0
   -3.7680    5.3576    1.4546 H   0  0  0  0  0  0  0  0  0  0  0  0
   -2.5743    1.3644    0.7114 H   0  0  0  0  0  0  0  0  0  0  0  0
  1  2  1  0
  2  3  1  0
  3  4  2  0
  4  5  1  0
  5  6  2  0
  6  7  1  0
  7  8  2  0
  7  9  1  0
  9 10  1  0
 10 11  2  0
 11 12  1  0
 12 13  2  0
 13 14  1  0
 14 15  2  0
 15 16  1  0
 16 17  1  0
 17 18  1  0
 18 19  1  0
 19 20  1  0
 20 21  1  0
 21 22  2  0
 21 23  1  0
 23 24  1  0
 24 25  2  0
 25 26  1  0
 26 27  2  0
 27 28  1  0
 28 29  1  0
 29 30  1  0
 30 31  1  0
 31 32  1  0
 32 33  2  0
  8  3  1  0
 17  9  2  0
 16 11  1  0
 33 24  1  0
 32 27  1  0
  1 34  1  0
  1 35  1  0
  1 36  1  0
  4 37  1  0
  5 38  1  0
  6 39  1  0
  8 40  1  0
 12 41  1  0
 14 42  1  0
 15 43  1  0
 18 44  1  0
 19 45  1  0
 19 46  1  0
 20 47  1  0
 20 48  1  0
 23 49  1  0
 25 50  1  0
 26 51  1  0
 29 52  1  0
 29 53  1  0
 30 54  1  0
 30 55  1  0
 33 56  1  0
M  END
>  <Unnamed: 0>  (181) 
1095

>  <ID>  (181) 
TRAIN_1095

>  <Canonical_Smiles>  (181) 
COc1cccc(c1)c2nc3cnccn3c2NCCC(=O)Nc4ccc5OCCOc5c4

>  <Inhibition>  (181) 
95.1

>  <TDC_conf_true_inhibitor>  (181) 
1

>  <TDC_conf_non_inhibitor>  (181) 
0

>  <split>  (181) 
1

$$$$
181
     RDKit          3D

 44 47  0  0  0  0  0  0  0  0999 V2000
    6.0433    1.4486    1.4408 C   0  0  0  0  0  0  0  0  0  0  0  0
    5.6566    0.0459    1.4431 N   0  0  0  0  0  0  0  0  0  0  0  0
    4.4982   -0.2149    0.6957 C   0  0  0  0  0  0  0  0  0  0  0  0
    3.2771    0.3579    1.0463 C   0  0  0  0  0  0  0  0  0  0  0  0
    2.1342    0.0747    0.2900 C   0  0  0  0  0  0  0  0  0  0  0  0
    0.8343    0.6294    0.6220 C   0  0  0  0  0  0  0  0  0  0  0  0
    0.6448    1.9867    0.7844 C   0  0  0  0  0  0  0  0  0  0  0  0
   -0.9677    2.3778    1.1968 S   0  0  0  0  0  0  0  0  0  0  0  0
   -1.4522    0.7333    1.1420 C   0  0  0  0  0  0  0  0  0  0  0  0
   -2.8701    0.3422    1.4623 C   0  0  0  0  0  0  0  0  0  0  0  0
   -3.7541    0.1022    0.3169 N   0  0  0  0  0  0  0  0  0  0  0  0
   -4.0253    1.2959   -0.4990 C   0  0  0  0  0  0  0  0  0  0  0  0
   -5.0127    1.0095   -1.6626 C   0  0  0  0  0  0  0  0  0  0  0  0
   -5.5438   -0.3676   -1.6633 N   0  0  0  0  0  0  0  0  0  0  0  0
   -4.4052   -1.3071   -1.6573 C   0  0  0  0  0  0  0  0  0  0  0  0
   -3.3717   -1.0351   -0.5305 C   0  0  0  0  0  0  0  0  0  0  0  0
   -0.3816   -0.0900    0.8456 C   0  0  0  0  0  0  0  0  0  0  0  0
    2.2717   -0.7933   -0.8080 C   0  0  0  0  0  0  0  0  0  0  0  0
    1.4333   -1.3293   -1.8289 C   0  0  0  0  0  0  0  0  0  0  0  0
    2.2068   -2.1478   -2.6260 C   0  0  0  0  0  0  0  0  0  0  0  0
    3.4845   -2.1258   -2.1293 N   0  0  0  0  0  0  0  0  0  0  0  0
    3.5441   -1.3049   -1.0365 C   0  0  0  0  0  0  0  0  0  0  0  0
    4.6651   -1.0639   -0.3356 N   0  0  0  0  0  0  0  0  0  0  0  0
    7.0123    1.5510    1.9407 H   0  0  0  0  0  0  0  0  0  0  0  0
    6.1512    1.8322    0.4195 H   0  0  0  0  0  0  0  0  0  0  0  0
    5.3266    2.0703    1.9878 H   0  0  0  0  0  0  0  0  0  0  0  0
    6.3694   -0.5252    0.9864 H   0  0  0  0  0  0  0  0  0  0  0  0
    3.2096    0.9931    1.9231 H   0  0  0  0  0  0  0  0  0  0  0  0
    1.3741    2.7793    0.6833 H   0  0  0  0  0  0  0  0  0  0  0  0
   -2.8465   -0.5639    2.0820 H   0  0  0  0  0  0  0  0  0  0  0  0
   -3.3316    1.1019    2.1081 H   0  0  0  0  0  0  0  0  0  0  0  0
   -3.1015    1.6979   -0.9323 H   0  0  0  0  0  0  0  0  0  0  0  0
   -4.4600    2.0746    0.1389 H   0  0  0  0  0  0  0  0  0  0  0  0
   -5.8589    1.7033   -1.5991 H   0  0  0  0  0  0  0  0  0  0  0  0
   -4.5200    1.2039   -2.6224 H   0  0  0  0  0  0  0  0  0  0  0  0
   -5.9992   -0.4843   -0.7537 H   0  0  0  0  0  0  0  0  0  0  0  0
   -3.9052   -1.2725   -2.6339 H   0  0  0  0  0  0  0  0  0  0  0  0
   -4.8019   -2.3226   -1.5484 H   0  0  0  0  0  0  0  0  0  0  0  0
   -3.2883   -1.9367    0.0876 H   0  0  0  0  0  0  0  0  0  0  0  0
   -2.3957   -0.8651   -1.0005 H   0  0  0  0  0  0  0  0  0  0  0  0
   -0.4658   -1.1690    0.7958 H   0  0  0  0  0  0  0  0  0  0  0  0
    0.3782   -1.1326   -1.9677 H   0  0  0  0  0  0  0  0  0  0  0  0
    1.9607   -2.7365   -3.4995 H   0  0  0  0  0  0  0  0  0  0  0  0
    4.2827   -2.6235   -2.4961 H   0  0  0  0  0  0  0  0  0  0  0  0
  1  2  1  0
  2  3  1  0
  3  4  2  0
  4  5  1  0
  5  6  1  0
  6  7  2  0
  7  8  1  0
  8  9  1  0
  9 10  1  0
 10 11  1  0
 11 12  1  0
 12 13  1  0
 13 14  1  0
 14 15  1  0
 15 16  1  0
  9 17  2  0
  5 18  2  0
 18 19  1  0
 19 20  2  0
 20 21  1  0
 21 22  1  0
 22 23  2  0
 23  3  1  0
 17  6  1  0
 16 11  1  0
 22 18  1  0
  1 24  1  0
  1 25  1  0
  1 26  1  0
  2 27  1  0
  4 28  1  0
  7 29  1  0
 10 30  1  0
 10 31  1  0
 12 32  1  0
 12 33  1  0
 13 34  1  0
 13 35  1  0
 14 36  1  0
 15 37  1  0
 15 38  1  0
 16 39  1  0
 16 40  1  0
 17 41  1  0
 19 42  1  0
 20 43  1  0
 21 44  1  0
M  END
>  <Unnamed: 0>  (182) 
1100

>  <ID>  (182) 
TRAIN_1100

>  <Canonical_Smiles>  (182) 
CNc1cc(c2csc(CN3CCNCC3)c2)c4cc[nH]c4n1

>  <Inhibition>  (182) 
25.7

>  <TDC_conf_true_inhibitor>  (182) 
1

>  <TDC_conf_non_inhibitor>  (182) 
0

>  <split>  (182) 
1

$$$$
182
     RDKit          3D

 58 62  0  0  0  0  0  0  0  0999 V2000
   -1.9058    2.6391    2.0665 C   0  0  0  0  0  0  0  0  0  0  0  0
   -1.9874    1.2897    1.4458 C   0  0  0  0  0  0  0  0  0  0  0  0
   -0.9284    0.4855    1.0297 C   0  0  0  0  0  0  0  0  0  0  0  0
   -1.4563   -0.7115    0.6023 N   0  0  0  0  0  0  0  0  0  0  0  0
   -2.8193   -0.6516    0.6389 C   0  0  0  0  0  0  0  0  0  0  0  0
   -3.7313   -1.7433    0.2044 C   0  0  0  0  0  0  0  0  0  0  0  0
   -5.1502   -1.1713   -0.0833 C   0  0  0  0  0  0  0  0  0  0  0  0
   -5.1731   -0.4500   -1.4462 C   0  0  0  0  0  0  0  0  0  0  0  0
   -6.1488   -2.3401   -0.1506 C   0  0  0  0  0  0  0  0  0  0  0  0
   -5.5993   -0.1940    1.0423 C   0  0  0  0  0  0  0  0  0  0  0  0
   -4.5920    0.9141    1.3491 C   0  0  0  0  0  0  0  0  0  0  0  0
   -4.9551    2.0096    1.7714 O   0  0  0  0  0  0  0  0  0  0  0  0
   -3.1865    0.5681    1.1674 C   0  0  0  0  0  0  0  0  0  0  0  0
    0.4998    0.7116    1.0681 C   0  0  0  0  0  0  0  0  0  0  0  0
    1.2027    0.1798    1.9220 O   0  0  0  0  0  0  0  0  0  0  0  0
    1.0275    1.4853    0.0497 N   0  0  0  0  0  0  0  0  0  0  0  0
    0.2867    2.3036   -0.8979 C   0  0  0  0  0  0  0  0  0  0  0  0
    1.2495    3.4285   -1.2379 C   0  0  0  0  0  0  0  0  0  0  0  0
    2.6061    2.7396   -1.2016 C   0  0  0  0  0  0  0  0  0  0  0  0
    2.4665    1.7199   -0.0580 C   0  0  0  0  0  0  0  0  0  0  0  0
    3.2719    0.4668   -0.3474 C   0  0  0  0  0  0  0  0  0  0  0  0
    2.8890   -0.4411   -1.3524 C   0  0  0  0  0  0  0  0  0  0  0  0
    3.6474   -1.5856   -1.6097 C   0  0  0  0  0  0  0  0  0  0  0  0
    4.7959   -1.8374   -0.8635 C   0  0  0  0  0  0  0  0  0  0  0  0
    5.4770   -2.9928   -1.1523 O   0  0  0  0  0  0  0  0  0  0  0  0
    6.4083   -3.3164   -0.1127 C   0  0  0  0  0  0  0  0  0  0  0  0
    7.2052   -2.0872    0.2967 C   0  0  0  0  0  0  0  0  0  0  0  0
    6.3459   -1.0943    0.8678 O   0  0  0  0  0  0  0  0  0  0  0  0
    5.2054   -0.9303    0.1192 C   0  0  0  0  0  0  0  0  0  0  0  0
    4.4413    0.2060    0.3856 C   0  0  0  0  0  0  0  0  0  0  0  0
   -0.8721    2.9276    2.2795 H   0  0  0  0  0  0  0  0  0  0  0  0
   -2.4578    2.6563    3.0120 H   0  0  0  0  0  0  0  0  0  0  0  0
   -2.3365    3.3916    1.3984 H   0  0  0  0  0  0  0  0  0  0  0  0
   -0.8985   -1.5036    0.2975 H   0  0  0  0  0  0  0  0  0  0  0  0
   -3.3320   -2.2516   -0.6826 H   0  0  0  0  0  0  0  0  0  0  0  0
   -3.7805   -2.4870    1.0103 H   0  0  0  0  0  0  0  0  0  0  0  0
   -4.8992   -1.1342   -2.2586 H   0  0  0  0  0  0  0  0  0  0  0  0
   -6.1749   -0.0608   -1.6659 H   0  0  0  0  0  0  0  0  0  0  0  0
   -4.4776    0.3944   -1.4812 H   0  0  0  0  0  0  0  0  0  0  0  0
   -6.1867   -2.8840    0.7982 H   0  0  0  0  0  0  0  0  0  0  0  0
   -5.8677   -3.0545   -0.9324 H   0  0  0  0  0  0  0  0  0  0  0  0
   -7.1626   -1.9842   -0.3707 H   0  0  0  0  0  0  0  0  0  0  0  0
   -5.7562   -0.7434    1.9795 H   0  0  0  0  0  0  0  0  0  0  0  0
   -6.5523    0.2787    0.7720 H   0  0  0  0  0  0  0  0  0  0  0  0
    0.0725    1.6845   -1.7771 H   0  0  0  0  0  0  0  0  0  0  0  0
   -0.6525    2.6869   -0.4920 H   0  0  0  0  0  0  0  0  0  0  0  0
    1.2091    4.2070   -0.4669 H   0  0  0  0  0  0  0  0  0  0  0  0
    1.0313    3.8896   -2.2041 H   0  0  0  0  0  0  0  0  0  0  0  0
    3.4273    3.4427   -1.0296 H   0  0  0  0  0  0  0  0  0  0  0  0
    2.7874    2.2549   -2.1693 H   0  0  0  0  0  0  0  0  0  0  0  0
    2.7838    2.1730    0.8901 H   0  0  0  0  0  0  0  0  0  0  0  0
    1.9894   -0.2631   -1.9380 H   0  0  0  0  0  0  0  0  0  0  0  0
    3.3356   -2.2843   -2.3808 H   0  0  0  0  0  0  0  0  0  0  0  0
    5.8535   -3.7366    0.7365 H   0  0  0  0  0  0  0  0  0  0  0  0
    7.0798   -4.0895   -0.4997 H   0  0  0  0  0  0  0  0  0  0  0  0
    7.9519   -2.3529    1.0515 H   0  0  0  0  0  0  0  0  0  0  0  0
    7.7294   -1.6442   -0.5611 H   0  0  0  0  0  0  0  0  0  0  0  0
    4.7636    0.8864    1.1714 H   0  0  0  0  0  0  0  0  0  0  0  0
  1  2  1  0
  2  3  2  0
  3  4  1  0
  4  5  1  0
  5  6  1  0
  6  7  1  0
  7  8  1  0
  7  9  1  0
  7 10  1  0
 10 11  1  0
 11 12  2  0
 11 13  1  0
  3 14  1  0
 14 15  2  0
 14 16  1  0
 16 17  1  0
 17 18  1  0
 18 19  1  0
 19 20  1  0
 20 21  1  0
 21 22  2  0
 22 23  1  0
 23 24  2  0
 24 25  1  0
 25 26  1  0
 26 27  1  0
 27 28  1  0
 28 29  1  0
 29 30  2  0
 13  2  1  0
 13  5  2  0
 20 16  1  0
 30 21  1  0
 29 24  1  0
  1 31  1  0
  1 32  1  0
  1 33  1  0
  4 34  1  0
  6 35  1  0
  6 36  1  0
  8 37  1  0
  8 38  1  0
  8 39  1  0
  9 40  1  0
  9 41  1  0
  9 42  1  0
 10 43  1  0
 10 44  1  0
 17 45  1  0
 17 46  1  0
 18 47  1  0
 18 48  1  0
 19 49  1  0
 19 50  1  0
 20 51  1  0
 22 52  1  0
 23 53  1  0
 26 54  1  0
 26 55  1  0
 27 56  1  0
 27 57  1  0
 30 58  1  0
M  END
>  <Unnamed: 0>  (183) 
1103

>  <ID>  (183) 
TRAIN_1103

>  <Canonical_Smiles>  (183) 
Cc1c([nH]c2CC(C)(C)CC(=O)c12)C(=O)N3CCCC3c4ccc5OCCOc5c4

>  <Inhibition>  (183) 
76.6

>  <TDC_conf_true_inhibitor>  (183) 
1

>  <TDC_conf_non_inhibitor>  (183) 
0

>  <split>  (183) 
1

$$$$
183
     RDKit          3D

 63 67  0  0  0  0  0  0  0  0999 V2000
    0.0195    3.9974    1.5051 C   0  0  0  0  0  0  0  0  0  0  0  0
    0.3892    2.6042    1.4041 N   0  0  0  0  0  0  0  0  0  0  0  0
   -0.3980    1.5264    1.7631 C   0  0  0  0  0  0  0  0  0  0  0  0
   -1.8016    1.6800    2.2972 C   0  0  0  0  0  0  0  0  0  0  0  0
   -2.6633    0.4940    2.1359 N   0  0  0  0  0  0  0  0  0  0  0  0
   -2.7633    0.0674    0.7227 C   0  0  0  0  0  0  0  0  0  0  0  0
   -4.0848   -0.6441    0.3735 C   0  0  0  0  0  0  0  0  0  0  0  0
   -5.2341    0.2283    0.6438 N   0  0  0  0  0  0  0  0  0  0  0  0
   -5.0953    1.1437    1.7755 C   0  0  0  0  0  0  0  0  0  0  0  0
   -3.9903    0.7043    2.7519 C   0  0  0  0  0  0  0  0  0  0  0  0
   -6.3741    0.3263   -0.1459 C   0  0  0  0  0  0  0  0  0  0  0  0
   -7.2563    1.1708    0.0183 O   0  0  0  0  0  0  0  0  0  0  0  0
   -6.5395   -0.6511   -1.2372 C   0  0  0  0  0  0  0  0  0  0  0  0
   -6.9497   -1.9580   -0.9330 C   0  0  0  0  0  0  0  0  0  0  0  0
   -7.1220   -2.8752   -1.9688 C   0  0  0  0  0  0  0  0  0  0  0  0
   -6.8859   -2.4853   -3.2933 C   0  0  0  0  0  0  0  0  0  0  0  0
   -6.4925   -1.1741   -3.5912 C   0  0  0  0  0  0  0  0  0  0  0  0
   -6.3253   -0.2468   -2.5611 C   0  0  0  0  0  0  0  0  0  0  0  0
    0.2604    0.3959    1.5724 N   0  0  0  0  0  0  0  0  0  0  0  0
    1.4718    0.7472    1.0408 C   0  0  0  0  0  0  0  0  0  0  0  0
    2.5314   -0.0747    0.6291 C   0  0  0  0  0  0  0  0  0  0  0  0
    3.6862    0.5096    0.0879 C   0  0  0  0  0  0  0  0  0  0  0  0
    4.7069   -0.3731   -0.3239 N   0  0  0  0  0  0  0  0  0  0  0  0
    5.9200   -0.0459   -0.8914 C   0  0  0  0  0  0  0  0  0  0  0  0
    6.3700    1.0614   -1.1484 O   0  0  0  0  0  0  0  0  0  0  0  0
    6.7509   -1.2111   -1.2585 C   0  0  0  0  0  0  0  0  0  0  0  0
    6.2269   -2.1700   -2.1407 C   0  0  0  0  0  0  0  0  0  0  0  0
    7.0260   -3.2344   -2.5709 C   0  0  0  0  0  0  0  0  0  0  0  0
    8.3506   -3.3432   -2.1346 C   0  0  0  0  0  0  0  0  0  0  0  0
    8.8837   -2.3926   -1.2607 C   0  0  0  0  0  0  0  0  0  0  0  0
    8.0751   -1.3313   -0.8295 C   0  0  0  0  0  0  0  0  0  0  0  0
    8.6254   -0.4024    0.1376 N   0  0  0  0  0  4  0  0  0  0  0  0
    7.9888   -0.2392    1.1878 O   0  0  0  0  0  0  0  0  0  0  0  0
    9.7332    0.0894   -0.1178 O   0  0  0  0  0  1  0  0  0  0  0  0
    3.7695    1.8998   -0.0249 C   0  0  0  0  0  0  0  0  0  0  0  0
    2.7215    2.7382    0.3861 C   0  0  0  0  0  0  0  0  0  0  0  0
    1.5819    2.1254    0.9152 C   0  0  0  0  0  0  0  0  0  0  0  0
   -0.6318    4.2399    0.6571 H   0  0  0  0  0  0  0  0  0  0  0  0
   -0.5048    4.1624    2.4533 H   0  0  0  0  0  0  0  0  0  0  0  0
    0.9176    4.6211    1.4859 H   0  0  0  0  0  0  0  0  0  0  0  0
   -1.6996    1.8968    3.3700 H   0  0  0  0  0  0  0  0  0  0  0  0
   -2.2845    2.5504    1.8317 H   0  0  0  0  0  0  0  0  0  0  0  0
   -2.6789    0.9357    0.0547 H   0  0  0  0  0  0  0  0  0  0  0  0
   -1.9356   -0.6092    0.4901 H   0  0  0  0  0  0  0  0  0  0  0  0
   -4.2094   -1.5489    0.9827 H   0  0  0  0  0  0  0  0  0  0  0  0
   -4.0673   -0.9489   -0.6771 H   0  0  0  0  0  0  0  0  0  0  0  0
   -6.0548    1.2098    2.3000 H   0  0  0  0  0  0  0  0  0  0  0  0
   -4.8732    2.1373    1.3676 H   0  0  0  0  0  0  0  0  0  0  0  0
   -3.9377    1.4069    3.5926 H   0  0  0  0  0  0  0  0  0  0  0  0
   -4.2902   -0.2551    3.1947 H   0  0  0  0  0  0  0  0  0  0  0  0
   -7.1452   -2.2517    0.0978 H   0  0  0  0  0  0  0  0  0  0  0  0
   -7.4550   -3.8905   -1.7473 H   0  0  0  0  0  0  0  0  0  0  0  0
   -7.0263   -3.2036   -4.0980 H   0  0  0  0  0  0  0  0  0  0  0  0
   -6.3239   -0.8761   -4.6254 H   0  0  0  0  0  0  0  0  0  0  0  0
   -6.0438    0.7804   -2.7855 H   0  0  0  0  0  0  0  0  0  0  0  0
    2.4202   -1.1468    0.7358 H   0  0  0  0  0  0  0  0  0  0  0  0
    4.5299   -1.3537   -0.1462 H   0  0  0  0  0  0  0  0  0  0  0  0
    5.2111   -2.0761   -2.5260 H   0  0  0  0  0  0  0  0  0  0  0  0
    6.6231   -3.9741   -3.2636 H   0  0  0  0  0  0  0  0  0  0  0  0
    8.9692   -4.1688   -2.4831 H   0  0  0  0  0  0  0  0  0  0  0  0
    9.9142   -2.4867   -0.9202 H   0  0  0  0  0  0  0  0  0  0  0  0
    4.6553    2.3782   -0.4348 H   0  0  0  0  0  0  0  0  0  0  0  0
    2.8084    3.8145    0.2864 H   0  0  0  0  0  0  0  0  0  0  0  0
  1  2  1  0
  2  3  1  0
  3  4  1  0
  4  5  1  0
  5  6  1  0
  6  7  1  0
  7  8  1  0
  8  9  1  0
  9 10  1  0
  8 11  1  0
 11 12  2  0
 11 13  1  0
 13 14  2  0
 14 15  1  0
 15 16  2  0
 16 17  1  0
 17 18  2  0
  3 19  2  0
 19 20  1  0
 20 21  2  0
 21 22  1  0
 22 23  1  0
 23 24  1  0
 24 25  2  0
 24 26  1  0
 26 27  2  0
 27 28  1  0
 28 29  2  0
 29 30  1  0
 30 31  2  0
 31 32  1  0
 32 33  2  0
 32 34  1  0
 22 35  2  0
 35 36  1  0
 36 37  2  0
 37  2  1  0
 10  5  1  0
 18 13  1  0
 37 20  1  0
 31 26  1  0
  1 38  1  0
  1 39  1  0
  1 40  1  0
  4 41  1  0
  4 42  1  0
  6 43  1  0
  6 44  1  0
  7 45  1  0
  7 46  1  0
  9 47  1  0
  9 48  1  0
 10 49  1  0
 10 50  1  0
 14 51  1  0
 15 52  1  0
 16 53  1  0
 17 54  1  0
 18 55  1  0
 21 56  1  0
 23 57  1  0
 27 58  1  0
 28 59  1  0
 29 60  1  0
 30 61  1  0
 35 62  1  0
 36 63  1  0
M  CHG  2  32   1  34  -1
M  END
>  <Unnamed: 0>  (184) 
1110

>  <ID>  (184) 
TRAIN_1110

>  <Canonical_Smiles>  (184) 
Cn1c(CN2CCN(CC2)C(=O)c3ccccc3)nc4cc(NC(=O)c5ccccc5[N+](=O)[O-])ccc14

>  <Inhibition>  (184) 
28.5

>  <TDC_conf_true_inhibitor>  (184) 
0

>  <TDC_conf_non_inhibitor>  (184) 
1

>  <split>  (184) 
1

$$$$
184
     RDKit          3D

 38 41  0  0  0  0  0  0  0  0999 V2000
    6.0308    1.0144   -0.5979 C   0  0  0  0  0  0  0  0  0  0  0  0
    4.6146    0.5448   -0.4408 C   0  0  0  0  0  0  0  0  0  0  0  0
    4.3436   -0.7469    0.0240 C   0  0  0  0  0  0  0  0  0  0  0  0
    3.0246   -1.1745    0.1997 C   0  0  0  0  0  0  0  0  0  0  0  0
    1.9548   -0.3127   -0.0737 C   0  0  0  0  0  0  0  0  0  0  0  0
    2.2280    0.9840   -0.5268 C   0  0  0  0  0  0  0  0  0  0  0  0
    3.5473    1.4109   -0.7032 C   0  0  0  0  0  0  0  0  0  0  0  0
    0.5685   -0.7738    0.1060 C   0  0  0  0  0  0  0  0  0  0  0  0
   -0.2684   -0.1363    0.9483 C   0  0  0  0  0  0  0  0  0  0  0  0
   -1.7037   -0.6102    1.1338 C   0  0  0  0  0  0  0  0  0  0  0  0
   -2.6975    0.4820    0.7601 C   0  0  0  0  0  0  0  0  0  0  0  0
   -2.7762    0.9864   -0.5515 C   0  0  0  0  0  0  0  0  0  0  0  0
   -3.6853    1.9958   -0.8751 C   0  0  0  0  0  0  0  0  0  0  0  0
   -4.5272    2.5176    0.1056 C   0  0  0  0  0  0  0  0  0  0  0  0
   -4.4583    2.0262    1.4069 C   0  0  0  0  0  0  0  0  0  0  0  0
   -5.4955    2.6721    2.6189 Cl  0  0  0  0  0  0  0  0  0  0  0  0
   -3.5529    1.0172    1.7382 C   0  0  0  0  0  0  0  0  0  0  0  0
   -1.9678   -1.8437    0.3844 N   0  0  0  0  0  0  0  0  0  0  0  0
   -3.0991   -2.5734    0.4827 N   0  0  0  0  0  0  0  0  0  0  0  0
   -2.8233   -3.5673   -0.3701 C   0  0  0  0  0  0  0  0  0  0  0  0
   -1.5855   -3.5258   -0.9596 N   0  0  0  0  0  0  0  0  0  0  0  0
   -1.0575   -2.4433   -0.4470 C   0  0  0  0  0  0  0  0  0  0  0  0
    0.1614   -1.8908   -0.5962 N   0  0  0  0  0  0  0  0  0  0  0  0
    6.6908    0.1824   -0.8649 H   0  0  0  0  0  0  0  0  0  0  0  0
    6.3830    1.4598    0.3375 H   0  0  0  0  0  0  0  0  0  0  0  0
    6.1088    1.7595   -1.3967 H   0  0  0  0  0  0  0  0  0  0  0  0
    5.1585   -1.4302    0.2536 H   0  0  0  0  0  0  0  0  0  0  0  0
    2.8392   -2.1825    0.5649 H   0  0  0  0  0  0  0  0  0  0  0  0
    1.4158    1.6712   -0.7530 H   0  0  0  0  0  0  0  0  0  0  0  0
    3.7355    2.4244   -1.0510 H   0  0  0  0  0  0  0  0  0  0  0  0
    0.0528    0.7273    1.5226 H   0  0  0  0  0  0  0  0  0  0  0  0
   -1.8287   -0.8907    2.1880 H   0  0  0  0  0  0  0  0  0  0  0  0
   -2.1316    0.5903   -1.3355 H   0  0  0  0  0  0  0  0  0  0  0  0
   -3.7395    2.3718   -1.8940 H   0  0  0  0  0  0  0  0  0  0  0  0
   -5.2349    3.3012   -0.1510 H   0  0  0  0  0  0  0  0  0  0  0  0
   -3.5219    0.6435    2.7594 H   0  0  0  0  0  0  0  0  0  0  0  0
   -3.5424   -4.3525   -0.5661 H   0  0  0  0  0  0  0  0  0  0  0  0
    0.8389   -2.3281   -1.2130 H   0  0  0  0  0  0  0  0  0  0  0  0
  1  2  1  0
  2  3  2  0
  3  4  1  0
  4  5  2  0
  5  6  1  0
  6  7  2  0
  5  8  1  0
  8  9  2  0
  9 10  1  0
 10 11  1  0
 11 12  2  0
 12 13  1  0
 13 14  2  0
 14 15  1  0
 15 16  1  0
 15 17  2  0
 10 18  1  0
 18 19  1  0
 19 20  2  0
 20 21  1  0
 21 22  2  0
 22 23  1  0
  7  2  1  0
 23  8  1  0
 17 11  1  0
 22 18  1  0
  1 24  1  0
  1 25  1  0
  1 26  1  0
  3 27  1  0
  4 28  1  0
  6 29  1  0
  7 30  1  0
  9 31  1  0
 10 32  1  0
 12 33  1  0
 13 34  1  0
 14 35  1  0
 17 36  1  0
 20 37  1  0
 23 38  1  0
M  END
>  <Unnamed: 0>  (185) 
1114

>  <ID>  (185) 
TRAIN_1114

>  <Canonical_Smiles>  (185) 
Cc1ccc(cc1)C2=CC(c3cccc(Cl)c3)n4ncnc4N2

>  <Inhibition>  (185) 
44.1

>  <TDC_conf_true_inhibitor>  (185) 
0

>  <TDC_conf_non_inhibitor>  (185) 
1

>  <split>  (185) 
1

$$$$
185
     RDKit          3D

 43 45  0  0  0  0  0  0  0  0999 V2000
    7.1792    0.1822    0.4180 C   0  0  0  0  0  0  0  0  0  0  0  0
    6.1339   -0.7121   -0.2195 C   0  0  0  0  0  0  0  0  0  0  0  0
    4.8432   -0.1527    0.0516 O   0  0  0  0  0  0  0  0  0  0  0  0
    3.8085   -0.8425   -0.4896 C   0  0  0  0  0  0  0  0  0  0  0  0
    3.9040   -1.8887   -1.1156 O   0  0  0  0  0  0  0  0  0  0  0  0
    2.5330   -0.1812   -0.1704 C   0  0  0  0  0  0  0  0  0  0  0  0
    1.3950   -0.8844   -0.2825 C   0  0  0  0  0  0  0  0  0  0  0  0
    0.0126   -0.2687    0.0771 C   0  0  0  0  0  0  0  0  0  0  0  0
   -1.1539   -0.5333   -0.6121 C   0  0  0  0  0  0  0  0  0  0  0  0
   -1.3369   -1.3614   -1.8425 C   0  0  0  0  0  0  0  0  0  0  0  0
   -2.1763    0.2061   -0.0104 N   0  0  0  0  0  0  0  0  0  0  0  0
   -1.6268    0.9426    1.0444 C   0  0  0  0  0  0  0  0  0  0  0  0
   -2.4304    1.8027    1.9642 C   0  0  0  0  0  0  0  0  0  0  0  0
   -0.2754    0.6592    1.0916 C   0  0  0  0  0  0  0  0  0  0  0  0
    0.7204    1.2982    2.1023 C   0  0  0  0  0  0  0  0  0  0  0  0
    1.9794    1.5998    1.7593 C   0  0  0  0  0  0  0  0  0  0  0  0
    2.5201    1.2332    0.3796 C   0  0  0  0  0  0  0  0  0  0  0  0
    2.9377    2.1444   -0.3105 O   0  0  0  0  0  0  0  0  0  0  0  0
   -3.5451    0.2115   -0.4102 C   0  0  0  0  0  0  0  0  0  0  0  0
   -4.2312    1.4236   -0.5541 C   0  0  0  0  0  0  0  0  0  0  0  0
   -5.5708    1.4241   -0.9481 C   0  0  0  0  0  0  0  0  0  0  0  0
   -6.2279    0.2197   -1.1961 C   0  0  0  0  0  0  0  0  0  0  0  0
   -5.5475   -0.9888   -1.0533 C   0  0  0  0  0  0  0  0  0  0  0  0
   -4.2069   -0.9965   -0.6628 C   0  0  0  0  0  0  0  0  0  0  0  0
    8.1860   -0.2049    0.2384 H   0  0  0  0  0  0  0  0  0  0  0  0
    7.0159    0.2565    1.4982 H   0  0  0  0  0  0  0  0  0  0  0  0
    7.1138    1.1986    0.0157 H   0  0  0  0  0  0  0  0  0  0  0  0
    6.1968   -1.7187    0.2087 H   0  0  0  0  0  0  0  0  0  0  0  0
    6.2975   -0.7597   -1.3020 H   0  0  0  0  0  0  0  0  0  0  0  0
    1.4225   -1.9139   -0.6328 H   0  0  0  0  0  0  0  0  0  0  0  0
   -2.0660   -0.9194   -2.5282 H   0  0  0  0  0  0  0  0  0  0  0  0
   -0.3988   -1.4448   -2.4013 H   0  0  0  0  0  0  0  0  0  0  0  0
   -1.6555   -2.3745   -1.5796 H   0  0  0  0  0  0  0  0  0  0  0  0
   -1.9499    1.8897    2.9438 H   0  0  0  0  0  0  0  0  0  0  0  0
   -2.5304    2.8127    1.5556 H   0  0  0  0  0  0  0  0  0  0  0  0
   -3.4257    1.3869    2.1479 H   0  0  0  0  0  0  0  0  0  0  0  0
    0.3768    1.5360    3.1048 H   0  0  0  0  0  0  0  0  0  0  0  0
    2.6526    2.0738    2.4623 H   0  0  0  0  0  0  0  0  0  0  0  0
   -3.7299    2.3762   -0.4067 H   0  0  0  0  0  0  0  0  0  0  0  0
   -6.0997    2.3660   -1.0707 H   0  0  0  0  0  0  0  0  0  0  0  0
   -7.2710    0.2231   -1.5024 H   0  0  0  0  0  0  0  0  0  0  0  0
   -6.0637   -1.9273   -1.2396 H   0  0  0  0  0  0  0  0  0  0  0  0
   -3.7091   -1.9519   -0.5225 H   0  0  0  0  0  0  0  0  0  0  0  0
  1  2  1  0
  2  3  1  0
  3  4  1  0
  4  5  2  0
  4  6  1  0
  6  7  2  0
  7  8  1  0
  8  9  2  0
  9 10  1  0
  9 11  1  0
 11 12  1  0
 12 13  1  0
 12 14  2  0
 14 15  1  0
 15 16  2  0
 16 17  1  0
 17 18  2  0
 11 19  1  0
 19 20  2  0
 20 21  1  0
 21 22  2  0
 22 23  1  0
 23 24  2  0
 17  6  1  0
 14  8  1  0
 24 19  1  0
  1 25  1  0
  1 26  1  0
  1 27  1  0
  2 28  1  0
  2 29  1  0
  7 30  1  0
 10 31  1  0
 10 32  1  0
 10 33  1  0
 13 34  1  0
 13 35  1  0
 13 36  1  0
 15 37  1  0
 16 38  1  0
 20 39  1  0
 21 40  1  0
 22 41  1  0
 23 42  1  0
 24 43  1  0
M  END
>  <Unnamed: 0>  (186) 
1119

>  <ID>  (186) 
TRAIN_1119

>  <Canonical_Smiles>  (186) 
CCOC(=O)C1=Cc2c(C)n(c(C)c2C=CC1=O)c3ccccc3

>  <Inhibition>  (186) 
47.0

>  <TDC_conf_true_inhibitor>  (186) 
1

>  <TDC_conf_non_inhibitor>  (186) 
0

>  <split>  (186) 
1

$$$$
186
     RDKit          3D

 36 38  0  0  0  0  0  0  0  0999 V2000
    5.8244    0.2179    0.6590 C   0  0  0  0  0  0  0  0  0  0  0  0
    4.5637    0.1285   -0.0821 N   0  0  0  0  0  0  0  0  0  0  0  0
    4.6642    0.4544   -1.5041 C   0  0  0  0  0  0  0  0  0  0  0  0
    3.3528    0.1316    0.6023 C   0  0  0  0  0  0  0  0  0  0  0  0
    2.1082    0.2204    0.1165 C   0  0  0  0  0  0  0  0  0  0  0  0
    0.9429    0.1937    1.0425 C   0  0  0  0  0  0  0  0  0  0  0  0
    1.0512   -0.0062    2.2459 O   0  0  0  0  0  0  0  0  0  0  0  0
   -0.3869    0.4105    0.4247 C   0  0  0  0  0  0  0  0  0  0  0  0
   -0.5843    1.5407   -0.4065 C   0  0  0  0  0  0  0  0  0  0  0  0
   -1.8260    1.7837   -1.0118 C   0  0  0  0  0  0  0  0  0  0  0  0
   -2.8616    0.8958   -0.7771 C   0  0  0  0  0  0  0  0  0  0  0  0
   -4.2697    0.9314   -1.2965 C   0  0  0  0  0  0  0  0  0  0  0  0
   -4.9191   -0.3287   -0.6703 C   0  0  0  0  0  0  0  0  0  0  0  0
   -3.8067   -0.9306    0.1366 C   0  0  0  0  0  0  0  0  0  0  0  0
   -3.8178   -2.0750    0.9156 C   0  0  0  0  0  0  0  0  0  0  0  0
   -2.6433   -2.4418    1.5861 C   0  0  0  0  0  0  0  0  0  0  0  0
   -1.4719   -1.6673    1.4731 C   0  0  0  0  0  0  0  0  0  0  0  0
   -1.4510   -0.4941    0.6788 C   0  0  0  0  0  0  0  0  0  0  0  0
   -2.6562   -0.1887    0.0391 C   0  0  0  0  0  0  0  0  0  0  0  0
    6.0616    1.2648    0.8750 H   0  0  0  0  0  0  0  0  0  0  0  0
    5.7679   -0.3302    1.6061 H   0  0  0  0  0  0  0  0  0  0  0  0
    6.6498   -0.2170    0.0853 H   0  0  0  0  0  0  0  0  0  0  0  0
    4.4594    1.5180   -1.6655 H   0  0  0  0  0  0  0  0  0  0  0  0
    3.9545   -0.1371   -2.0921 H   0  0  0  0  0  0  0  0  0  0  0  0
    5.6628    0.2357   -1.8974 H   0  0  0  0  0  0  0  0  0  0  0  0
    3.4885    0.0389    1.6814 H   0  0  0  0  0  0  0  0  0  0  0  0
    1.9150    0.2974   -0.9442 H   0  0  0  0  0  0  0  0  0  0  0  0
    0.2256    2.2486   -0.5700 H   0  0  0  0  0  0  0  0  0  0  0  0
   -1.9699    2.6551   -1.6435 H   0  0  0  0  0  0  0  0  0  0  0  0
   -4.2878    0.8767   -2.3898 H   0  0  0  0  0  0  0  0  0  0  0  0
   -4.7868    1.8393   -0.9689 H   0  0  0  0  0  0  0  0  0  0  0  0
   -5.7655   -0.0545   -0.0322 H   0  0  0  0  0  0  0  0  0  0  0  0
   -5.2589   -1.0194   -1.4489 H   0  0  0  0  0  0  0  0  0  0  0  0
   -4.7152   -2.6782    1.0115 H   0  0  0  0  0  0  0  0  0  0  0  0
   -2.6334   -3.3349    2.2070 H   0  0  0  0  0  0  0  0  0  0  0  0
   -0.5807   -1.9792    2.0145 H   0  0  0  0  0  0  0  0  0  0  0  0
  1  2  1  0
  2  3  1  0
  2  4  1  0
  4  5  2  0
  5  6  1  0
  6  7  2  0
  6  8  1  0
  8  9  2  0
  9 10  1  0
 10 11  2  0
 11 12  1  0
 12 13  1  0
 13 14  1  0
 14 15  1  0
 15 16  2  0
 16 17  1  0
 17 18  2  0
 18 19  1  0
 18  8  1  0
 19 11  1  0
 19 14  2  0
  1 20  1  0
  1 21  1  0
  1 22  1  0
  3 23  1  0
  3 24  1  0
  3 25  1  0
  4 26  1  0
  5 27  1  0
  9 28  1  0
 10 29  1  0
 12 30  1  0
 12 31  1  0
 13 32  1  0
 13 33  1  0
 15 34  1  0
 16 35  1  0
 17 36  1  0
M  END
>  <Unnamed: 0>  (187) 
1121

>  <ID>  (187) 
TRAIN_1121

>  <Canonical_Smiles>  (187) 
CN(C)\C=C\C(=O)c1ccc2CCc3cccc1c23

>  <Inhibition>  (187) 
7.0

>  <TDC_conf_true_inhibitor>  (187) 
0

>  <TDC_conf_non_inhibitor>  (187) 
1

>  <split>  (187) 
1

$$$$
187
     RDKit          3D

 32 35  0  0  0  0  0  0  0  0999 V2000
   -2.8325   -2.1309   -0.3755 C   0  0  0  0  0  0  0  0  0  0  0  0
   -1.4727   -2.4372    0.1283 C   0  0  0  0  0  0  0  0  0  0  0  0
   -1.2293   -3.6771    0.5758 N   0  0  0  0  0  0  0  0  0  0  0  0
    0.1046   -3.6959    0.9301 O   0  0  0  0  0  0  0  0  0  0  0  0
    0.6601   -2.4769    0.6992 C   0  0  0  0  0  0  0  0  0  0  0  0
    1.9572   -2.2129    0.9266 N   0  0  0  0  0  0  0  0  0  0  0  0
    2.3650   -0.9623    0.6277 C   0  0  0  0  0  0  0  0  0  0  0  0
    1.4766   -0.0065    0.1318 C   0  0  0  0  0  0  0  0  0  0  0  0
    0.1191   -0.3112   -0.0729 C   0  0  0  0  0  0  0  0  0  0  0  0
   -0.7632    0.7669   -0.5660 C   0  0  0  0  0  0  0  0  0  0  0  0
   -0.2766    1.6502   -1.2670 O   0  0  0  0  0  0  0  0  0  0  0  0
   -2.0642    0.7203   -0.1485 N   0  0  0  0  0  0  0  0  0  0  0  0
   -2.8249    1.7037   -0.4740 C   0  0  0  0  0  0  0  0  0  0  0  0
   -2.6185    2.8506   -1.1879 N   0  0  0  0  0  0  0  0  0  0  0  0
   -3.6521    3.7190   -1.3758 N   0  0  0  0  0  0  0  0  0  0  0  0
   -4.6971    3.2320   -0.7808 C   0  0  0  0  0  0  0  0  0  0  0  0
   -4.5066    1.6890    0.0428 S   0  0  0  0  0  0  0  0  0  0  0  0
   -0.3108   -1.6164    0.2069 C   0  0  0  0  0  0  0  0  0  0  0  0
    3.8365   -0.6684    0.8694 C   0  0  0  0  0  0  0  0  0  0  0  0
    4.6286    0.2474   -0.0330 C   0  0  0  0  0  0  0  0  0  0  0  0
    4.3123    0.6735    1.3730 C   0  0  0  0  0  0  0  0  0  0  0  0
   -2.7864   -1.5638   -1.3100 H   0  0  0  0  0  0  0  0  0  0  0  0
   -3.3982   -1.5629    0.3685 H   0  0  0  0  0  0  0  0  0  0  0  0
   -3.3943   -3.0480   -0.5857 H   0  0  0  0  0  0  0  0  0  0  0  0
    1.8351    0.9959   -0.0909 H   0  0  0  0  0  0  0  0  0  0  0  0
   -1.6939    3.0214   -1.5880 H   0  0  0  0  0  0  0  0  0  0  0  0
   -5.6690    3.7486   -0.7829 H   0  0  0  0  0  0  0  0  0  0  0  0
    4.3914   -1.5250    1.2535 H   0  0  0  0  0  0  0  0  0  0  0  0
    4.1318    0.7578   -0.8492 H   0  0  0  0  0  0  0  0  0  0  0  0
    5.6513   -0.0352   -0.2602 H   0  0  0  0  0  0  0  0  0  0  0  0
    5.1214    0.6788    2.0960 H   0  0  0  0  0  0  0  0  0  0  0  0
    3.5993    1.4758    1.5186 H   0  0  0  0  0  0  0  0  0  0  0  0
  1  2  1  0
  2  3  2  0
  3  4  1  0
  4  5  1  0
  5  6  2  0
  6  7  1  0
  7  8  2  0
  8  9  1  0
  9 10  1  0
 10 11  2  0
 10 12  1  0
 12 13  2  0
 13 14  1  0
 14 15  1  0
 15 16  2  0
 16 17  1  0
  9 18  2  0
  7 19  1  0
 19 20  1  0
 20 21  1  0
 18  2  1  0
 18  5  1  0
 17 13  1  0
 21 19  1  0
  1 22  1  0
  1 23  1  0
  1 24  1  0
  8 25  1  0
 14 26  1  0
 16 27  1  0
 19 28  1  0
 20 29  1  0
 20 30  1  0
 21 31  1  0
 21 32  1  0
M  END
>  <Unnamed: 0>  (188) 
1123

>  <ID>  (188) 
TRAIN_1123

>  <Canonical_Smiles>  (188) 
Cc1noc2nc(cc(C(=O)\N=C\3/NN=CS3)c12)C4CC4

>  <Inhibition>  (188) 
30.9

>  <TDC_conf_true_inhibitor>  (188) 
0

>  <TDC_conf_non_inhibitor>  (188) 
1

>  <split>  (188) 
1

$$$$
188
     RDKit          3D

 45 48  0  0  0  0  0  0  0  0999 V2000
   -0.4166    3.1451    3.1289 O   0  0  0  0  0  0  0  0  0  0  0  0
   -0.8822    2.5265    1.9320 C   0  0  0  0  0  0  0  0  0  0  0  0
   -0.6904    1.0193    2.0059 C   0  0  0  0  0  0  0  0  0  0  0  0
   -1.0877    0.3628    0.7834 N   0  0  0  0  0  0  0  0  0  0  0  0
   -2.4031    0.2516    0.5068 N   0  0  0  0  0  0  0  0  0  0  0  0
   -2.3877   -0.4872   -0.6072 C   0  0  0  0  0  0  0  0  0  0  0  0
   -1.1354   -0.8378   -1.0345 N   0  0  0  0  0  0  0  0  0  0  0  0
   -0.3195   -0.2714   -0.1634 C   0  0  0  0  0  0  0  0  0  0  0  0
    1.1384   -0.3691   -0.1910 C   0  0  0  0  0  0  0  0  0  0  0  0
    1.9647    0.7481   -0.0353 C   0  0  0  0  0  0  0  0  0  0  0  0
    3.3583    0.6117   -0.0706 C   0  0  0  0  0  0  0  0  0  0  0  0
    3.9601   -0.6388   -0.2780 C   0  0  0  0  0  0  0  0  0  0  0  0
    3.1281   -1.7516   -0.4561 C   0  0  0  0  0  0  0  0  0  0  0  0
    1.7345   -1.6156   -0.4187 C   0  0  0  0  0  0  0  0  0  0  0  0
    5.4230   -0.7635   -0.3136 C   0  0  0  0  0  0  0  0  0  0  0  0
    6.2065   -1.8980   -0.6695 C   0  0  0  0  0  0  0  0  0  0  0  0
    7.5160   -1.5042   -0.5415 C   0  0  0  0  0  0  0  0  0  0  0  0
    7.4705   -0.2081   -0.1335 N   0  0  0  0  0  0  0  0  0  0  0  0
    6.2256    0.2656    0.0123 N   0  0  0  0  0  0  0  0  0  0  0  0
   -3.6120   -0.9072   -1.3549 C   0  0  0  0  0  0  0  0  0  0  0  0
   -4.8051   -1.2640   -0.4662 C   0  0  0  0  0  0  0  0  0  0  0  0
   -5.5848    0.0364   -0.2664 C   0  0  0  0  0  0  0  0  0  0  0  0
   -5.0844    1.0122   -1.3294 C   0  0  0  0  0  0  0  0  0  0  0  0
   -4.1749    0.2007   -2.2449 C   0  0  0  0  0  0  0  0  0  0  0  0
   -1.0878    2.9933    3.8180 H   0  0  0  0  0  0  0  0  0  0  0  0
   -0.3156    2.9514    1.0974 H   0  0  0  0  0  0  0  0  0  0  0  0
   -1.9336    2.7972    1.7856 H   0  0  0  0  0  0  0  0  0  0  0  0
   -1.2931    0.5987    2.8203 H   0  0  0  0  0  0  0  0  0  0  0  0
    0.3472    0.7660    2.2421 H   0  0  0  0  0  0  0  0  0  0  0  0
    1.5476    1.7427    0.0950 H   0  0  0  0  0  0  0  0  0  0  0  0
    3.9771    1.4991    0.0558 H   0  0  0  0  0  0  0  0  0  0  0  0
    3.5416   -2.7416   -0.6262 H   0  0  0  0  0  0  0  0  0  0  0  0
    1.1096   -2.4947   -0.5707 H   0  0  0  0  0  0  0  0  0  0  0  0
    5.8637   -2.8731   -0.9832 H   0  0  0  0  0  0  0  0  0  0  0  0
    8.4518   -2.0192   -0.7032 H   0  0  0  0  0  0  0  0  0  0  0  0
    8.2462    0.4153    0.0641 H   0  0  0  0  0  0  0  0  0  0  0  0
   -3.3407   -1.7753   -1.9687 H   0  0  0  0  0  0  0  0  0  0  0  0
   -4.5226   -1.7233    0.4869 H   0  0  0  0  0  0  0  0  0  0  0  0
   -5.4479   -1.9800   -0.9943 H   0  0  0  0  0  0  0  0  0  0  0  0
   -5.4133    0.4466    0.7350 H   0  0  0  0  0  0  0  0  0  0  0  0
   -6.6614   -0.1407   -0.3632 H   0  0  0  0  0  0  0  0  0  0  0  0
   -5.9090    1.4719   -1.8832 H   0  0  0  0  0  0  0  0  0  0  0  0
   -4.5199    1.8229   -0.8542 H   0  0  0  0  0  0  0  0  0  0  0  0
   -3.4042    0.8231   -2.7114 H   0  0  0  0  0  0  0  0  0  0  0  0
   -4.7776   -0.2436   -3.0470 H   0  0  0  0  0  0  0  0  0  0  0  0
  1  2  1  0
  2  3  1  0
  3  4  1  0
  4  5  1  0
  5  6  2  0
  6  7  1  0
  7  8  2  0
  8  9  1  0
  9 10  2  0
 10 11  1  0
 11 12  2  0
 12 13  1  0
 13 14  2  0
 12 15  1  0
 15 16  1  0
 16 17  2  0
 17 18  1  0
 18 19  1  0
  6 20  1  0
 20 21  1  0
 21 22  1  0
 22 23  1  0
 23 24  1  0
  8  4  1  0
 14  9  1  0
 19 15  2  0
 24 20  1  0
  1 25  1  0
  2 26  1  0
  2 27  1  0
  3 28  1  0
  3 29  1  0
 10 30  1  0
 11 31  1  0
 13 32  1  0
 14 33  1  0
 16 34  1  0
 17 35  1  0
 18 36  1  0
 20 37  1  0
 21 38  1  0
 21 39  1  0
 22 40  1  0
 22 41  1  0
 23 42  1  0
 23 43  1  0
 24 44  1  0
 24 45  1  0
M  END
>  <Unnamed: 0>  (189) 
1131

>  <ID>  (189) 
TRAIN_1131

>  <Canonical_Smiles>  (189) 
OCCn1nc(nc1c2ccc(cc2)c3cc[nH]n3)C4CCCC4

>  <Inhibition>  (189) 
35.3

>  <TDC_conf_true_inhibitor>  (189) 
1

>  <TDC_conf_non_inhibitor>  (189) 
0

>  <split>  (189) 
1

$$$$
189
     RDKit          3D

 37 39  0  0  0  0  0  0  0  0999 V2000
    5.0040    1.6886   -0.0136 C   0  0  0  0  0  0  0  0  0  0  0  0
    3.9687    0.6326    0.2343 C   0  0  0  0  0  0  0  0  0  0  0  0
    3.9851   -0.1311    1.4103 C   0  0  0  0  0  0  0  0  0  0  0  0
    3.0003   -1.0961    1.6363 C   0  0  0  0  0  0  0  0  0  0  0  0
    1.9940   -1.2940    0.6941 C   0  0  0  0  0  0  0  0  0  0  0  0
    1.0601   -2.2251    0.9355 F   0  0  0  0  0  0  0  0  0  0  0  0
    1.9569   -0.5296   -0.4656 C   0  0  0  0  0  0  0  0  0  0  0  0
    0.9142   -0.7544   -1.4673 C   0  0  0  0  0  0  0  0  0  0  0  0
    1.2227   -1.3244   -2.5096 O   0  0  0  0  0  0  0  0  0  0  0  0
   -0.3614   -0.3120   -1.1835 N   0  0  0  0  0  0  0  0  0  0  0  0
   -1.4556   -0.5307   -2.1186 C   0  0  0  0  0  0  0  0  0  0  0  0
   -2.7098   -0.1748   -1.3175 C   0  0  1  0  0  0  0  0  0  0  0  0
   -3.2235   -1.4007   -0.5379 C   0  0  0  0  0  0  0  0  0  0  0  0
   -3.9381   -1.0597    0.7337 C   0  0  0  0  0  0  0  0  0  0  0  0
   -3.8841    0.1458    1.3144 C   0  0  0  0  0  0  0  0  0  0  0  0
   -3.1064    1.2997    0.7614 C   0  0  0  0  0  0  0  0  0  0  0  0
   -2.1892    0.9508   -0.4078 C   0  0  1  0  0  0  0  0  0  0  0  0
   -0.8042    0.4353   -0.0095 C   0  0  0  0  0  0  0  0  0  0  0  0
    2.9412    0.4262   -0.6958 C   0  0  0  0  0  0  0  0  0  0  0  0
    2.9030    1.1845   -1.8022 F   0  0  0  0  0  0  0  0  0  0  0  0
    4.5864    2.6786    0.1941 H   0  0  0  0  0  0  0  0  0  0  0  0
    5.8814    1.5412    0.6247 H   0  0  0  0  0  0  0  0  0  0  0  0
    5.3480    1.6546   -1.0526 H   0  0  0  0  0  0  0  0  0  0  0  0
    4.7664    0.0174    2.1535 H   0  0  0  0  0  0  0  0  0  0  0  0
    3.0127   -1.6979    2.5407 H   0  0  0  0  0  0  0  0  0  0  0  0
   -1.4459   -1.5554   -2.5035 H   0  0  0  0  0  0  0  0  0  0  0  0
   -1.3132    0.1606   -2.9572 H   0  0  0  0  0  0  0  0  0  0  0  0
   -3.5074    0.1904   -1.9752 H   0  0  0  0  0  0  0  0  0  0  0  0
   -2.4039   -2.0853   -0.2854 H   0  0  0  0  0  0  0  0  0  0  0  0
   -3.9020   -1.9657   -1.1888 H   0  0  0  0  0  0  0  0  0  0  0  0
   -4.5157   -1.8535    1.2022 H   0  0  0  0  0  0  0  0  0  0  0  0
   -4.4371    0.3182    2.2352 H   0  0  0  0  0  0  0  0  0  0  0  0
   -2.5227    1.7639    1.5649 H   0  0  0  0  0  0  0  0  0  0  0  0
   -3.8340    2.0505    0.4283 H   0  0  0  0  0  0  0  0  0  0  0  0
   -2.0438    1.8562   -1.0150 H   0  0  0  0  0  0  0  0  0  0  0  0
   -0.8398   -0.2527    0.8417 H   0  0  0  0  0  0  0  0  0  0  0  0
   -0.1071    1.2477    0.2170 H   0  0  0  0  0  0  0  0  0  0  0  0
  1  2  1  0
  2  3  2  0
  3  4  1  0
  4  5  2  0
  5  6  1  0
  5  7  1  0
  7  8  1  0
  8  9  2  0
  8 10  1  0
 10 11  1  0
 11 12  1  0
 12 13  1  0
 13 14  1  0
 14 15  2  0
 15 16  1  0
 16 17  1  0
 17 18  1  0
  7 19  2  0
 19 20  1  0
 19  2  1  0
 18 10  1  0
 17 12  1  0
  1 21  1  0
  1 22  1  0
  1 23  1  0
  3 24  1  0
  4 25  1  0
 11 26  1  0
 11 27  1  0
 12 28  1  6
 13 29  1  0
 13 30  1  0
 14 31  1  0
 15 32  1  0
 16 33  1  0
 16 34  1  0
 17 35  1  6
 18 36  1  0
 18 37  1  0
M  END
>  <Unnamed: 0>  (190) 
1144

>  <ID>  (190) 
TRAIN_1144

>  <Canonical_Smiles>  (190) 
Cc1ccc(F)c(C(=O)N2C[C@H]3CC=CC[C@H]3C2)c1F

>  <Inhibition>  (190) 
37.6

>  <TDC_conf_true_inhibitor>  (190) 
0

>  <TDC_conf_non_inhibitor>  (190) 
1

>  <split>  (190) 
1

$$$$
190
     RDKit          3D

 41 42  0  0  0  0  0  0  0  0999 V2000
    4.7569   -1.6482    0.5440 C   0  0  0  0  0  0  0  0  0  0  0  0
    4.3338   -0.8765   -0.6518 C   0  0  0  0  0  0  0  0  0  0  0  0
    4.4330   -1.2903   -1.9002 N   0  0  0  0  0  0  0  0  0  0  0  0
    3.9584   -0.2691   -2.6773 C   0  0  0  0  0  0  0  0  0  0  0  0
    3.5510    0.7837   -1.8962 C   0  0  0  0  0  0  0  0  0  0  0  0
    3.7767    0.3809   -0.6067 N   0  0  0  0  0  0  0  0  0  0  0  0
    3.4967    1.1770    0.5719 C   0  0  0  0  0  0  0  0  0  0  0  0
    2.2147    0.7794    1.3021 C   0  0  0  0  0  0  0  0  0  0  0  0
    0.9574    0.9441    0.4473 C   0  0  0  0  0  0  0  0  0  0  0  0
   -0.3053    0.6671    1.2404 C   0  0  0  0  0  0  0  0  0  0  0  0
   -0.3111    0.4198    2.4401 O   0  0  0  0  0  0  0  0  0  0  0  0
   -1.4479    0.7380    0.4693 N   0  0  0  0  0  0  0  0  0  0  0  0
   -2.7645    0.4138    1.0242 C   0  0  2  0  0  0  0  0  0  0  0  0
   -2.9792   -1.1058    1.1039 C   0  0  0  0  0  0  0  0  0  0  0  0
   -3.2533   -1.7151   -0.2682 C   0  0  0  0  0  0  0  0  0  0  0  0
   -4.3856   -1.0813   -0.9417 N   0  0  0  0  0  0  0  0  0  0  0  0
   -4.1840    0.3647   -1.0970 C   0  0  0  0  0  0  0  0  0  0  0  0
   -3.9045    1.0892    0.2315 C   0  0  1  0  0  0  0  0  0  0  0  0
   -5.1038    1.1335    1.0156 O   0  0  0  0  0  0  0  0  0  0  0  0
    3.8907   -1.9407    1.1439 H   0  0  0  0  0  0  0  0  0  0  0  0
    5.2785   -2.5619    0.2415 H   0  0  0  0  0  0  0  0  0  0  0  0
    5.4409   -1.0651    1.1676 H   0  0  0  0  0  0  0  0  0  0  0  0
    3.9394   -0.3458   -3.7565 H   0  0  0  0  0  0  0  0  0  0  0  0
    3.1341    1.7491   -2.1452 H   0  0  0  0  0  0  0  0  0  0  0  0
    3.4469    2.2274    0.2609 H   0  0  0  0  0  0  0  0  0  0  0  0
    4.3586    1.0855    1.2420 H   0  0  0  0  0  0  0  0  0  0  0  0
    2.2810   -0.2581    1.6503 H   0  0  0  0  0  0  0  0  0  0  0  0
    2.1283    1.4010    2.2022 H   0  0  0  0  0  0  0  0  0  0  0  0
    0.9820    0.2512   -0.4011 H   0  0  0  0  0  0  0  0  0  0  0  0
    0.8973    1.9676    0.0596 H   0  0  0  0  0  0  0  0  0  0  0  0
   -1.3346    0.7281   -0.5373 H   0  0  0  0  0  0  0  0  0  0  0  0
   -2.7818    0.7986    2.0523 H   0  0  0  0  0  0  0  0  0  0  0  0
   -3.8295   -1.3169    1.7650 H   0  0  0  0  0  0  0  0  0  0  0  0
   -2.1082   -1.5985    1.5517 H   0  0  0  0  0  0  0  0  0  0  0  0
   -3.4665   -2.7838   -0.1541 H   0  0  0  0  0  0  0  0  0  0  0  0
   -2.3615   -1.6453   -0.9025 H   0  0  0  0  0  0  0  0  0  0  0  0
   -5.2496   -1.2652   -0.4341 H   0  0  0  0  0  0  0  0  0  0  0  0
   -5.0869    0.7809   -1.5583 H   0  0  0  0  0  0  0  0  0  0  0  0
   -3.3593    0.5357   -1.7989 H   0  0  0  0  0  0  0  0  0  0  0  0
   -3.6403    2.1315    0.0193 H   0  0  0  0  0  0  0  0  0  0  0  0
   -5.3988    0.2200    1.1641 H   0  0  0  0  0  0  0  0  0  0  0  0
  1  2  1  0
  2  3  2  0
  3  4  1  0
  4  5  2  0
  5  6  1  0
  6  7  1  0
  7  8  1  0
  8  9  1  0
  9 10  1  0
 10 11  2  0
 10 12  1  0
 12 13  1  0
 13 14  1  0
 14 15  1  0
 15 16  1  0
 16 17  1  0
 17 18  1  0
 18 19  1  0
  6  2  1  0
 18 13  1  0
  1 20  1  0
  1 21  1  0
  1 22  1  0
  4 23  1  0
  5 24  1  0
  7 25  1  0
  7 26  1  0
  8 27  1  0
  8 28  1  0
  9 29  1  0
  9 30  1  0
 12 31  1  0
 13 32  1  1
 14 33  1  0
 14 34  1  0
 15 35  1  0
 15 36  1  0
 16 37  1  0
 17 38  1  0
 17 39  1  0
 18 40  1  6
 19 41  1  0
M  END
>  <Unnamed: 0>  (191) 
1146

>  <ID>  (191) 
TRAIN_1146

>  <Canonical_Smiles>  (191) 
Cc1nccn1CCCC(=O)N[C@@H]2CCNC[C@H]2O

>  <Inhibition>  (191) 
12.5

>  <TDC_conf_true_inhibitor>  (191) 
0

>  <TDC_conf_non_inhibitor>  (191) 
1

>  <split>  (191) 
1

$$$$
191
     RDKit          3D

 44 46  0  0  0  0  0  0  0  0999 V2000
   -0.7328    0.1505   -0.1125 N   0  0  0  0  0  0  0  0  0  0  0  0
   -1.9402    0.7461   -0.3653 N   0  0  0  0  0  0  0  0  0  0  0  0
   -2.9923    0.1213    0.0602 C   0  0  0  0  0  0  0  0  0  0  0  0
   -4.3453    0.6631   -0.1813 C   0  0  0  0  0  0  0  0  0  0  0  0
   -5.4144   -0.0100    0.2655 C   0  0  0  0  0  0  0  0  0  0  0  0
   -6.8007    0.4365    0.0691 C   0  0  0  0  0  0  0  0  0  0  0  0
   -7.7998   -0.5266   -0.1250 C   0  0  0  0  0  0  0  0  0  0  0  0
   -9.1344   -0.1462   -0.2879 C   0  0  0  0  0  0  0  0  0  0  0  0
   -9.4856    1.2012   -0.2468 C   0  0  0  0  0  0  0  0  0  0  0  0
   -8.5041    2.1677   -0.0387 C   0  0  0  0  0  0  0  0  0  0  0  0
   -7.1690    1.7875    0.1234 C   0  0  0  0  0  0  0  0  0  0  0  0
   -0.4188   -1.1586   -0.3426 C   0  0  0  0  0  0  0  0  0  0  0  0
   -1.1893   -2.2100   -0.5439 N   0  0  0  0  0  0  0  0  0  0  0  0
   -0.3845   -3.3092   -0.7139 N   0  0  0  0  0  0  0  0  0  0  0  0
    0.8605   -2.9021   -0.6231 C   0  0  0  0  0  0  0  0  0  0  0  0
    0.9151   -1.5505   -0.3911 N   0  0  0  0  0  0  0  0  0  0  0  0
    1.9729   -0.6821   -0.2343 N   0  0  0  0  0  0  0  0  0  0  0  0
    3.1638   -1.1741   -0.3047 C   0  0  0  0  0  0  0  0  0  0  0  0
    4.3397   -0.2923   -0.1452 C   0  0  0  0  0  0  0  0  0  0  0  0
    5.5730   -0.8115   -0.2185 C   0  0  0  0  0  0  0  0  0  0  0  0
    6.7988   -0.0146   -0.0647 C   0  0  0  0  0  0  0  0  0  0  0  0
    6.9192    1.2830   -0.5803 C   0  0  0  0  0  0  0  0  0  0  0  0
    8.1125    1.9963   -0.4384 C   0  0  0  0  0  0  0  0  0  0  0  0
    9.2002    1.4167    0.2108 C   0  0  0  0  0  0  0  0  0  0  0  0
    9.0982    0.1218    0.7137 C   0  0  0  0  0  0  0  0  0  0  0  0
    7.9057   -0.5923    0.5716 C   0  0  0  0  0  0  0  0  0  0  0  0
    0.0640    0.7891   -0.1818 H   0  0  0  0  0  0  0  0  0  0  0  0
   -2.9404   -0.8213    0.6332 H   0  0  0  0  0  0  0  0  0  0  0  0
   -4.4033    1.5927   -0.7338 H   0  0  0  0  0  0  0  0  0  0  0  0
   -5.2947   -0.9574    0.7868 H   0  0  0  0  0  0  0  0  0  0  0  0
   -7.5466   -1.5840   -0.1617 H   0  0  0  0  0  0  0  0  0  0  0  0
   -9.8983   -0.9029   -0.4463 H   0  0  0  0  0  0  0  0  0  0  0  0
  -10.5236    1.4975   -0.3728 H   0  0  0  0  0  0  0  0  0  0  0  0
   -8.7766    3.2191    0.0024 H   0  0  0  0  0  0  0  0  0  0  0  0
   -6.4250    2.5597    0.3027 H   0  0  0  0  0  0  0  0  0  0  0  0
    1.7239   -3.5396   -0.7187 H   0  0  0  0  0  0  0  0  0  0  0  0
    3.3925   -2.2387   -0.4816 H   0  0  0  0  0  0  0  0  0  0  0  0
    4.1418    0.7576    0.0389 H   0  0  0  0  0  0  0  0  0  0  0  0
    5.7269   -1.8761   -0.3788 H   0  0  0  0  0  0  0  0  0  0  0  0
    6.0928    1.7527   -1.1082 H   0  0  0  0  0  0  0  0  0  0  0  0
    8.1933    3.0033   -0.8400 H   0  0  0  0  0  0  0  0  0  0  0  0
   10.1281    1.9722    0.3203 H   0  0  0  0  0  0  0  0  0  0  0  0
    9.9475   -0.3339    1.2165 H   0  0  0  0  0  0  0  0  0  0  0  0
    7.8493   -1.6018    0.9726 H   0  0  0  0  0  0  0  0  0  0  0  0
  1  2  1  0
  2  3  2  0
  3  4  1  0
  4  5  2  0
  5  6  1  0
  6  7  2  0
  7  8  1  0
  8  9  2  0
  9 10  1  0
 10 11  2  0
  1 12  1  0
 12 13  2  0
 13 14  1  0
 14 15  2  0
 15 16  1  0
 16 17  1  0
 17 18  2  0
 18 19  1  0
 19 20  2  0
 20 21  1  0
 21 22  2  0
 22 23  1  0
 23 24  2  0
 24 25  1  0
 25 26  2  0
 11  6  1  0
 16 12  1  0
 26 21  1  0
  1 27  1  0
  3 28  1  0
  4 29  1  0
  5 30  1  0
  7 31  1  0
  8 32  1  0
  9 33  1  0
 10 34  1  0
 11 35  1  0
 15 36  1  0
 18 37  1  0
 19 38  1  0
 20 39  1  0
 22 40  1  0
 23 41  1  0
 24 42  1  0
 25 43  1  0
 26 44  1  0
M  END
>  <Unnamed: 0>  (192) 
1147

>  <ID>  (192) 
TRAIN_1147

>  <Canonical_Smiles>  (192) 
N(\N=C\C=C\c1ccccc1)c2nncn2\N=C\C=C\c3ccccc3

>  <Inhibition>  (192) 
45.9

>  <TDC_conf_true_inhibitor>  (192) 
1

>  <TDC_conf_non_inhibitor>  (192) 
0

>  <split>  (192) 
1

$$$$
192
     RDKit          3D

 37 38  0  0  0  0  0  0  0  0999 V2000
    5.8989   -0.9113   -0.5786 O   0  0  0  0  0  0  0  0  0  0  0  0
    4.4902   -0.9557   -0.8029 C   0  0  0  0  0  0  0  0  0  0  0  0
    3.7444   -0.2590    0.3452 C   0  0  0  0  0  0  0  0  0  0  0  0
    2.2826   -0.3069    0.2254 N   0  0  0  0  0  0  0  0  0  0  0  0
    1.7512    0.5301   -0.8556 C   0  0  0  0  0  0  0  0  0  0  0  0
    0.2101    0.3916   -1.0140 C   0  0  0  0  0  0  0  0  0  0  0  0
   -0.5293   -0.0174    0.2033 N   0  0  0  0  0  0  0  0  0  0  0  0
    0.1571    0.5217    1.3896 C   0  0  0  0  0  0  0  0  0  0  0  0
    1.6376    0.0605    1.5019 C   0  0  0  0  0  0  0  0  0  0  0  0
   -1.9711    0.3238    0.1433 C   0  0  0  0  0  0  0  0  0  0  0  0
   -2.7261   -0.2567    1.3469 C   0  0  0  0  0  0  0  0  0  0  0  0
   -4.4429   -0.2300    0.8935 S   0  0  0  0  0  6  0  0  0  0  0  0
   -5.0061   -1.5447    1.1209 O   0  0  0  0  0  0  0  0  0  0  0  0
   -5.0476    0.9703    1.4334 O   0  0  0  0  0  0  0  0  0  0  0  0
   -4.2123   -0.0087   -0.8473 C   0  0  0  0  0  0  0  0  0  0  0  0
   -2.7314   -0.2547   -1.0923 C   0  0  0  0  0  0  0  0  0  0  0  0
   -2.3645    0.4036   -2.3047 O   0  0  0  0  0  0  0  0  0  0  0  0
    6.1679    0.0225   -0.6039 H   0  0  0  0  0  0  0  0  0  0  0  0
    4.2940   -0.4828   -1.7693 H   0  0  0  0  0  0  0  0  0  0  0  0
    4.1958   -2.0080   -0.8698 H   0  0  0  0  0  0  0  0  0  0  0  0
    4.0994    0.7759    0.4403 H   0  0  0  0  0  0  0  0  0  0  0  0
    4.0523   -0.7606    1.2729 H   0  0  0  0  0  0  0  0  0  0  0  0
    2.2049    0.2679   -1.8173 H   0  0  0  0  0  0  0  0  0  0  0  0
    1.9956    1.5834   -0.6617 H   0  0  0  0  0  0  0  0  0  0  0  0
    0.0251   -0.3660   -1.7846 H   0  0  0  0  0  0  0  0  0  0  0  0
   -0.1578    1.3557   -1.3873 H   0  0  0  0  0  0  0  0  0  0  0  0
   -0.3438    0.2113    2.3126 H   0  0  0  0  0  0  0  0  0  0  0  0
    0.1270    1.6194    1.3607 H   0  0  0  0  0  0  0  0  0  0  0  0
    1.6791   -0.8195    2.1556 H   0  0  0  0  0  0  0  0  0  0  0  0
    2.1927    0.8636    2.0048 H   0  0  0  0  0  0  0  0  0  0  0  0
   -2.0779    1.4181    0.1305 H   0  0  0  0  0  0  0  0  0  0  0  0
   -2.4515   -1.3003    1.5343 H   0  0  0  0  0  0  0  0  0  0  0  0
   -2.5968    0.3316    2.2586 H   0  0  0  0  0  0  0  0  0  0  0  0
   -4.8417   -0.7095   -1.4010 H   0  0  0  0  0  0  0  0  0  0  0  0
   -4.5030    1.0126   -1.1123 H   0  0  0  0  0  0  0  0  0  0  0  0
   -2.5228   -1.3275   -1.1919 H   0  0  0  0  0  0  0  0  0  0  0  0
   -2.6790   -0.1445   -3.0460 H   0  0  0  0  0  0  0  0  0  0  0  0
  1  2  1  0
  2  3  1  0
  3  4  1  0
  4  5  1  0
  5  6  1  0
  6  7  1  0
  7  8  1  0
  8  9  1  0
  7 10  1  0
 10 11  1  0
 11 12  1  0
 12 13  2  0
 12 14  2  0
 12 15  1  0
 15 16  1  0
 16 17  1  0
  9  4  1  0
 16 10  1  0
  1 18  1  0
  2 19  1  0
  2 20  1  0
  3 21  1  0
  3 22  1  0
  5 23  1  0
  5 24  1  0
  6 25  1  0
  6 26  1  0
  8 27  1  0
  8 28  1  0
  9 29  1  0
  9 30  1  0
 10 31  1  0
 11 32  1  0
 11 33  1  0
 15 34  1  0
 15 35  1  0
 16 36  1  0
 17 37  1  0
M  END
>  <Unnamed: 0>  (193) 
1151

>  <ID>  (193) 
TRAIN_1151

>  <Canonical_Smiles>  (193) 
OCCN1CCN(CC1)C2CS(=O)(=O)CC2O

>  <Inhibition>  (193) 
29.0

>  <TDC_conf_true_inhibitor>  (193) 
0

>  <TDC_conf_non_inhibitor>  (193) 
1

>  <split>  (193) 
1

$$$$
193
     RDKit          3D

 60 63  0  0  0  0  0  0  0  0999 V2000
    4.0155   -1.2031   -2.3669 C   0  0  0  0  0  0  0  0  0  0  0  0
    4.1348   -1.4918   -0.9445 N   0  0  0  0  0  0  0  0  0  0  0  0
    5.3145   -0.8462   -0.3571 C   0  0  0  0  0  0  0  0  0  0  0  0
    5.1760   -0.6543    1.1618 C   0  0  0  0  0  0  0  0  0  0  0  0
    4.0912    0.2811    1.5159 N   0  0  0  0  0  0  0  0  0  0  0  0
    3.9425    0.3465    2.9644 C   0  0  0  0  0  0  0  0  0  0  0  0
    2.8455    0.0993    0.6967 C   0  0  0  0  0  0  0  0  0  0  0  0
    2.7587    1.3671   -0.1924 C   0  0  0  0  0  0  0  0  0  0  0  0
    1.5004    1.4146   -1.0544 C   0  0  0  0  0  0  0  0  0  0  0  0
    0.2735    1.2170   -0.2887 N   0  0  0  0  0  0  0  0  0  0  0  0
    0.2655    0.1122    0.6712 C   0  0  0  0  0  0  0  0  0  0  0  0
    1.5296    0.0740    1.5283 C   0  0  0  0  0  0  0  0  0  0  0  0
   -0.9014    1.7187   -0.8638 C   0  0  0  0  0  0  0  0  0  0  0  0
   -0.9334    2.4188   -1.8715 O   0  0  0  0  0  0  0  0  0  0  0  0
   -2.1857    1.4053   -0.2124 C   0  0  0  0  0  0  0  0  0  0  0  0
   -2.5755    2.2310    0.8382 C   0  0  0  0  0  0  0  0  0  0  0  0
   -3.7630    1.9350    1.4731 C   0  0  0  0  0  0  0  0  0  0  0  0
   -4.2445    2.7807    2.6129 C   0  0  0  0  0  0  0  0  0  0  0  0
   -4.5349    0.8849    1.1101 N   0  0  0  0  0  0  0  0  0  0  0  0
   -4.1685    0.0973    0.0751 C   0  0  0  0  0  0  0  0  0  0  0  0
   -4.9796   -0.9815   -0.2992 C   0  0  0  0  0  0  0  0  0  0  0  0
   -6.2545   -1.2544    0.4559 C   0  0  0  0  0  0  0  0  0  0  0  0
   -4.6251   -1.8182   -1.3723 C   0  0  0  0  0  0  0  0  0  0  0  0
   -3.4617   -1.5867   -2.1026 C   0  0  0  0  0  0  0  0  0  0  0  0
   -3.0729   -2.4910   -3.2337 C   0  0  0  0  0  0  0  0  0  0  0  0
   -2.6390   -0.5242   -1.7258 C   0  0  0  0  0  0  0  0  0  0  0  0
   -2.9794    0.3231   -0.6429 C   0  0  0  0  0  0  0  0  0  0  0  0
    2.9087   -1.2188   -0.1769 C   0  0  0  0  0  0  0  0  0  0  0  0
    3.1946   -1.7777   -2.8100 H   0  0  0  0  0  0  0  0  0  0  0  0
    4.9269   -1.5037   -2.8960 H   0  0  0  0  0  0  0  0  0  0  0  0
    3.8394   -0.1420   -2.5680 H   0  0  0  0  0  0  0  0  0  0  0  0
    6.1927   -1.4702   -0.5604 H   0  0  0  0  0  0  0  0  0  0  0  0
    5.5094    0.1314   -0.8168 H   0  0  0  0  0  0  0  0  0  0  0  0
    5.0182   -1.6309    1.6397 H   0  0  0  0  0  0  0  0  0  0  0  0
    6.1261   -0.2599    1.5427 H   0  0  0  0  0  0  0  0  0  0  0  0
    3.3183    1.1938    3.2635 H   0  0  0  0  0  0  0  0  0  0  0  0
    3.5269   -0.5770    3.3811 H   0  0  0  0  0  0  0  0  0  0  0  0
    4.9134    0.5199    3.4438 H   0  0  0  0  0  0  0  0  0  0  0  0
    2.7583    2.2575    0.4533 H   0  0  0  0  0  0  0  0  0  0  0  0
    3.6353    1.4682   -0.8410 H   0  0  0  0  0  0  0  0  0  0  0  0
    1.4617    2.3843   -1.5646 H   0  0  0  0  0  0  0  0  0  0  0  0
    1.5248    0.6514   -1.8399 H   0  0  0  0  0  0  0  0  0  0  0  0
   -0.5967    0.1963    1.3392 H   0  0  0  0  0  0  0  0  0  0  0  0
    0.1314   -0.8178    0.1084 H   0  0  0  0  0  0  0  0  0  0  0  0
    1.4955   -0.8138    2.1713 H   0  0  0  0  0  0  0  0  0  0  0  0
    1.4841    0.9512    2.1861 H   0  0  0  0  0  0  0  0  0  0  0  0
   -1.9650    3.0744    1.1421 H   0  0  0  0  0  0  0  0  0  0  0  0
   -4.3858    3.8148    2.2836 H   0  0  0  0  0  0  0  0  0  0  0  0
   -5.2015    2.4113    2.9952 H   0  0  0  0  0  0  0  0  0  0  0  0
   -3.5191    2.7596    3.4322 H   0  0  0  0  0  0  0  0  0  0  0  0
   -6.7829   -2.1247    0.0523 H   0  0  0  0  0  0  0  0  0  0  0  0
   -6.9297   -0.3955    0.3840 H   0  0  0  0  0  0  0  0  0  0  0  0
   -6.0355   -1.4600    1.5088 H   0  0  0  0  0  0  0  0  0  0  0  0
   -5.2713   -2.6523   -1.6408 H   0  0  0  0  0  0  0  0  0  0  0  0
   -3.9588   -2.9134   -3.7194 H   0  0  0  0  0  0  0  0  0  0  0  0
   -2.4500   -3.3098   -2.8608 H   0  0  0  0  0  0  0  0  0  0  0  0
   -2.5149   -1.9413   -3.9990 H   0  0  0  0  0  0  0  0  0  0  0  0
   -1.7255   -0.3429   -2.2913 H   0  0  0  0  0  0  0  0  0  0  0  0
    2.8035   -2.0645    0.5183 H   0  0  0  0  0  0  0  0  0  0  0  0
    2.0390   -1.3079   -0.8362 H   0  0  0  0  0  0  0  0  0  0  0  0
  1  2  1  0
  2  3  1  0
  3  4  1  0
  4  5  1  0
  5  6  1  0
  5  7  1  0
  7  8  1  0
  8  9  1  0
  9 10  1  0
 10 11  1  0
 11 12  1  0
 10 13  1  0
 13 14  2  0
 13 15  1  0
 15 16  2  0
 16 17  1  0
 17 18  1  0
 17 19  2  0
 19 20  1  0
 20 21  2  0
 21 22  1  0
 21 23  1  0
 23 24  2  0
 24 25  1  0
 24 26  1  0
 26 27  2  0
  7 28  1  0
 28  2  1  0
 12  7  1  0
 27 15  1  0
 27 20  1  0
  1 29  1  0
  1 30  1  0
  1 31  1  0
  3 32  1  0
  3 33  1  0
  4 34  1  0
  4 35  1  0
  6 36  1  0
  6 37  1  0
  6 38  1  0
  8 39  1  0
  8 40  1  0
  9 41  1  0
  9 42  1  0
 11 43  1  0
 11 44  1  0
 12 45  1  0
 12 46  1  0
 16 47  1  0
 18 48  1  0
 18 49  1  0
 18 50  1  0
 22 51  1  0
 22 52  1  0
 22 53  1  0
 23 54  1  0
 25 55  1  0
 25 56  1  0
 25 57  1  0
 26 58  1  0
 28 59  1  0
 28 60  1  0
M  END
>  <Unnamed: 0>  (194) 
1153

>  <ID>  (194) 
TRAIN_1153

>  <Canonical_Smiles>  (194) 
CN1CCN(C)C2(CCN(CC2)C(=O)c3cc(C)nc4c(C)cc(C)cc34)C1

>  <Inhibition>  (194) 
27.7

>  <TDC_conf_true_inhibitor>  (194) 
0

>  <TDC_conf_non_inhibitor>  (194) 
1

>  <split>  (194) 
1

$$$$
194
     RDKit          3D

 34 36  0  0  0  0  0  0  0  0999 V2000
    6.4974   -0.2466    0.5686 N   0  0  0  0  0  0  0  0  0  0  0  0
    5.1692   -0.2251    0.3686 C   0  0  0  0  0  0  0  0  0  0  0  0
    4.2980   -0.1975    1.3491 N   0  0  0  0  0  0  0  0  0  0  0  0
    3.0236   -0.1785    0.8266 C   0  0  0  0  0  0  0  0  0  0  0  0
    1.8145   -0.1755    1.6841 C   0  0  0  0  0  0  0  0  0  0  0  0
    0.6072    0.3480    0.8878 C   0  0  0  0  0  0  0  0  0  0  0  0
    0.5064   -0.2375   -0.4688 N   0  0  0  0  0  0  0  0  0  0  0  0
    1.6878   -0.1396   -1.3454 C   0  0  0  0  0  0  0  0  0  0  0  0
    2.9403   -0.1782   -0.5468 C   0  0  0  0  0  0  0  0  0  0  0  0
    4.5030   -0.2015   -1.2202 S   0  0  0  0  0  0  0  0  0  0  0  0
   -0.7110   -0.4346   -1.1301 C   0  0  0  0  0  0  0  0  0  0  0  0
   -0.7409   -0.6913   -2.3381 O   0  0  0  0  0  0  0  0  0  0  0  0
   -2.0125   -0.3471   -0.3052 C   0  0  0  0  0  0  0  0  0  0  0  0
   -3.2110   -0.8305   -1.1532 C   0  0  0  0  0  0  0  0  0  0  0  0
   -4.4872   -0.8131   -0.4067 N   0  0  0  0  0  0  0  0  0  0  0  0
   -4.5283    0.3163    0.5350 C   0  0  0  0  0  0  0  0  0  0  0  0
   -3.5463    1.4409    0.1804 C   0  0  0  0  0  0  0  0  0  0  0  0
   -2.1841    0.9993    0.1787 O   0  0  0  0  0  0  0  0  0  0  0  0
    6.7880    0.0371    1.4975 H   0  0  0  0  0  0  0  0  0  0  0  0
    7.0806    0.1223   -0.1720 H   0  0  0  0  0  0  0  0  0  0  0  0
    1.6181   -1.2030    2.0127 H   0  0  0  0  0  0  0  0  0  0  0  0
    1.9687    0.4384    2.5776 H   0  0  0  0  0  0  0  0  0  0  0  0
   -0.2911    0.1478    1.4746 H   0  0  0  0  0  0  0  0  0  0  0  0
    0.6775    1.4351    0.7545 H   0  0  0  0  0  0  0  0  0  0  0  0
    1.6139    0.8084   -1.8918 H   0  0  0  0  0  0  0  0  0  0  0  0
    1.6674   -0.9604   -2.0713 H   0  0  0  0  0  0  0  0  0  0  0  0
   -1.9086   -1.0130    0.5606 H   0  0  0  0  0  0  0  0  0  0  0  0
   -3.3224   -0.1871   -2.0359 H   0  0  0  0  0  0  0  0  0  0  0  0
   -3.0377   -1.8487   -1.5191 H   0  0  0  0  0  0  0  0  0  0  0  0
   -5.2526   -0.7398   -1.0774 H   0  0  0  0  0  0  0  0  0  0  0  0
   -5.5493    0.7089    0.5874 H   0  0  0  0  0  0  0  0  0  0  0  0
   -4.2778   -0.0742    1.5283 H   0  0  0  0  0  0  0  0  0  0  0  0
   -3.7754    1.8694   -0.8024 H   0  0  0  0  0  0  0  0  0  0  0  0
   -3.6255    2.2510    0.9125 H   0  0  0  0  0  0  0  0  0  0  0  0
  1  2  1  0
  2  3  2  0
  3  4  1  0
  4  5  1  0
  5  6  1  0
  6  7  1  0
  7  8  1  0
  8  9  1  0
  9 10  1  0
  7 11  1  0
 11 12  2  0
 11 13  1  0
 13 14  1  0
 14 15  1  0
 15 16  1  0
 16 17  1  0
 17 18  1  0
 10  2  1  0
  9  4  2  0
 18 13  1  0
  1 19  1  0
  1 20  1  0
  5 21  1  0
  5 22  1  0
  6 23  1  0
  6 24  1  0
  8 25  1  0
  8 26  1  0
 13 27  1  0
 14 28  1  0
 14 29  1  0
 15 30  1  0
 16 31  1  0
 16 32  1  0
 17 33  1  0
 17 34  1  0
M  END
>  <Unnamed: 0>  (195) 
1156

>  <ID>  (195) 
TRAIN_1156

>  <Canonical_Smiles>  (195) 
Nc1nc2CCN(Cc2s1)C(=O)C3CNCCO3

>  <Inhibition>  (195) 
14.9

>  <TDC_conf_true_inhibitor>  (195) 
0

>  <TDC_conf_non_inhibitor>  (195) 
1

>  <split>  (195) 
1

$$$$
195
     RDKit          3D

 49 52  0  0  0  0  0  0  0  0999 V2000
    6.8454    2.1002   -1.6930 C   0  0  0  0  0  0  0  0  0  0  0  0
    6.1489    0.8603   -1.2156 C   0  0  0  0  0  0  0  0  0  0  0  0
    6.7314   -0.3962   -1.3962 C   0  0  0  0  0  0  0  0  0  0  0  0
    6.0637   -1.5438   -0.9767 C   0  0  0  0  0  0  0  0  0  0  0  0
    4.8023   -1.4437   -0.3828 C   0  0  0  0  0  0  0  0  0  0  0  0
    4.1732   -0.1984   -0.1966 C   0  0  0  0  0  0  0  0  0  0  0  0
    4.8745    0.9453   -0.6309 C   0  0  0  0  0  0  0  0  0  0  0  0
    2.8363   -0.0928    0.4229 C   0  0  0  0  0  0  0  0  0  0  0  0
    2.2233   -1.2337    0.8101 N   0  0  0  0  0  0  0  0  0  0  0  0
    0.9978   -1.1082    1.3617 C   0  0  0  0  0  0  0  0  0  0  0  0
    0.3529    0.0954    1.5123 C   0  0  0  0  0  0  0  0  0  0  0  0
   -0.9826    0.2287    2.1028 C   0  0  0  0  0  0  0  0  0  0  0  0
   -1.1537    1.1908    2.8520 O   0  0  0  0  0  0  0  0  0  0  0  0
   -1.9870   -0.6794    1.7964 N   0  0  0  0  0  0  0  0  0  0  0  0
   -3.2670   -0.5440    2.4948 C   0  0  0  0  0  0  0  0  0  0  0  0
   -4.1322   -1.7889    2.3006 C   0  0  0  0  0  0  0  0  0  0  0  0
   -4.4202   -2.0986    0.9309 O   0  0  0  0  0  0  0  0  0  0  0  0
   -3.4507   -1.6193   -0.0258 C   0  0  0  0  0  0  0  0  0  0  0  0
   -2.0308   -1.5300    0.5924 C   0  0  0  0  0  0  0  0  0  0  0  0
   -3.9992   -0.3710   -0.7106 C   0  0  0  0  0  0  0  0  0  0  0  0
   -3.2093    0.7449   -1.0283 C   0  0  0  0  0  0  0  0  0  0  0  0
   -3.7602    1.8536   -1.6788 C   0  0  0  0  0  0  0  0  0  0  0  0
   -5.1060    1.8627   -2.0336 C   0  0  0  0  0  0  0  0  0  0  0  0
   -5.9039    0.7615   -1.7420 C   0  0  0  0  0  0  0  0  0  0  0  0
   -5.3543   -0.3451   -1.0916 C   0  0  0  0  0  0  0  0  0  0  0  0
    1.0844    1.2010    1.1345 C   0  0  0  0  0  0  0  0  0  0  0  0
    0.6190    2.4780    1.2982 O   0  0  0  0  0  0  0  0  0  0  0  0
    2.3022    1.1341    0.5712 N   0  0  0  0  0  0  0  0  0  0  0  0
    6.6061    2.9537   -1.0501 H   0  0  0  0  0  0  0  0  0  0  0  0
    6.5384    2.3305   -2.7178 H   0  0  0  0  0  0  0  0  0  0  0  0
    7.9327    1.9720   -1.6703 H   0  0  0  0  0  0  0  0  0  0  0  0
    7.7093   -0.4881   -1.8631 H   0  0  0  0  0  0  0  0  0  0  0  0
    6.5223   -2.5198   -1.1124 H   0  0  0  0  0  0  0  0  0  0  0  0
    4.3050   -2.3585   -0.0642 H   0  0  0  0  0  0  0  0  0  0  0  0
    4.4173    1.9279   -0.5092 H   0  0  0  0  0  0  0  0  0  0  0  0
    0.5544   -2.0417    1.6937 H   0  0  0  0  0  0  0  0  0  0  0  0
   -3.7694    0.3428    2.0919 H   0  0  0  0  0  0  0  0  0  0  0  0
   -3.0789   -0.3678    3.5596 H   0  0  0  0  0  0  0  0  0  0  0  0
   -3.6351   -2.6644    2.7345 H   0  0  0  0  0  0  0  0  0  0  0  0
   -5.0890   -1.6691    2.8186 H   0  0  0  0  0  0  0  0  0  0  0  0
   -3.4050   -2.3845   -0.8119 H   0  0  0  0  0  0  0  0  0  0  0  0
   -1.7366   -2.5307    0.9321 H   0  0  0  0  0  0  0  0  0  0  0  0
   -1.2994   -1.1982   -0.1494 H   0  0  0  0  0  0  0  0  0  0  0  0
   -2.1535    0.7873   -0.7790 H   0  0  0  0  0  0  0  0  0  0  0  0
   -3.1338    2.7122   -1.9095 H   0  0  0  0  0  0  0  0  0  0  0  0
   -5.5309    2.7259   -2.5389 H   0  0  0  0  0  0  0  0  0  0  0  0
   -6.9546    0.7607   -2.0200 H   0  0  0  0  0  0  0  0  0  0  0  0
   -5.9959   -1.1982   -0.8750 H   0  0  0  0  0  0  0  0  0  0  0  0
   -0.1018    2.4444    1.9617 H   0  0  0  0  0  0  0  0  0  0  0  0
  1  2  1  0
  2  3  2  0
  3  4  1  0
  4  5  2  0
  5  6  1  0
  6  7  2  0
  6  8  1  0
  8  9  2  0
  9 10  1  0
 10 11  2  0
 11 12  1  0
 12 13  2  0
 12 14  1  0
 14 15  1  0
 15 16  1  0
 16 17  1  0
 17 18  1  0
 18 19  1  0
 18 20  1  0
 20 21  2  0
 21 22  1  0
 22 23  2  0
 23 24  1  0
 24 25  2  0
 11 26  1  0
 26 27  1  0
 26 28  2  0
  7  2  1  0
 28  8  1  0
 19 14  1  0
 25 20  1  0
  1 29  1  0
  1 30  1  0
  1 31  1  0
  3 32  1  0
  4 33  1  0
  5 34  1  0
  7 35  1  0
 10 36  1  0
 15 37  1  0
 15 38  1  0
 16 39  1  0
 16 40  1  0
 18 41  1  0
 19 42  1  0
 19 43  1  0
 21 44  1  0
 22 45  1  0
 23 46  1  0
 24 47  1  0
 25 48  1  0
 27 49  1  0
M  END
>  <Unnamed: 0>  (196) 
1165

>  <ID>  (196) 
TRAIN_1165

>  <Canonical_Smiles>  (196) 
Cc1cccc(c1)c2ncc(C(=O)N3CCOC(C3)c4ccccc4)c(O)n2

>  <Inhibition>  (196) 
34.0

>  <TDC_conf_true_inhibitor>  (196) 
0

>  <TDC_conf_non_inhibitor>  (196) 
1

>  <split>  (196) 
1

$$$$
196
     RDKit          3D

 42 44  0  0  0  0  0  0  0  0999 V2000
   -4.3870    0.8649    2.0248 C   0  0  0  0  0  0  0  0  0  0  0  0
   -3.3236   -0.1218    1.9027 N   0  0  0  0  0  0  0  0  0  0  0  0
   -3.6607   -1.2419    1.0131 C   0  0  0  0  0  0  0  0  0  0  0  0
   -3.1092   -0.9094   -0.3684 C   0  0  1  0  0  0  0  0  0  0  0  0
   -4.1240   -0.2650   -1.3067 C   0  0  0  0  0  0  0  0  0  0  0  0
   -3.3586    0.7559   -2.0150 N   0  0  0  0  0  0  0  0  0  0  0  0
   -2.4762    1.3410   -1.0041 C   0  0  0  0  0  0  0  0  0  0  0  0
   -2.0275    0.1591   -0.1362 C   0  0  1  0  0  0  0  0  0  0  0  0
   -2.0697    0.4339    1.3737 C   0  0  0  0  0  0  0  0  0  0  0  0
   -0.6193   -0.3056   -0.5192 C   0  0  0  0  0  0  0  0  0  0  0  0
   -0.3610   -1.4421   -0.9056 O   0  0  0  0  0  0  0  0  0  0  0  0
    0.3742    0.6405   -0.3469 N   0  0  0  0  0  0  0  0  0  0  0  0
    1.7612    0.3532   -0.6750 C   0  0  0  0  0  0  0  0  0  0  0  0
    2.4509   -0.5040    0.3860 C   0  0  0  0  0  0  0  0  0  0  0  0
    3.8972   -0.6910    0.0525 C   0  0  0  0  0  0  0  0  0  0  0  0
    4.8029    0.2630    0.1483 N   0  0  0  0  0  0  0  0  0  0  0  0
    6.0474   -0.2239   -0.2345 C   0  0  0  0  0  0  0  0  0  0  0  0
    7.2146    0.6922   -0.1930 C   0  0  0  0  0  0  0  0  0  0  0  0
    6.0362   -1.5484   -0.6098 C   0  0  0  0  0  0  0  0  0  0  0  0
    7.3490   -2.5181   -1.1359 Cl  0  0  0  0  0  0  0  0  0  0  0  0
    4.4804   -2.2121   -0.5011 S   0  0  0  0  0  0  0  0  0  0  0  0
   -5.2997    0.3969    2.4098 H   0  0  0  0  0  0  0  0  0  0  0  0
   -4.6315    1.3672    1.0859 H   0  0  0  0  0  0  0  0  0  0  0  0
   -4.1022    1.6345    2.7508 H   0  0  0  0  0  0  0  0  0  0  0  0
   -3.1407   -2.1299    1.3944 H   0  0  0  0  0  0  0  0  0  0  0  0
   -4.7287   -1.4879    1.0064 H   0  0  0  0  0  0  0  0  0  0  0  0
   -2.7196   -1.8177   -0.8415 H   0  0  0  0  0  0  0  0  0  0  0  0
   -4.9659    0.1885   -0.7739 H   0  0  0  0  0  0  0  0  0  0  0  0
   -4.5365   -0.9963   -2.0093 H   0  0  0  0  0  0  0  0  0  0  0  0
   -3.9734    1.4572   -2.4253 H   0  0  0  0  0  0  0  0  0  0  0  0
   -1.6528    1.8620   -1.5017 H   0  0  0  0  0  0  0  0  0  0  0  0
   -3.0296    2.0872   -0.4230 H   0  0  0  0  0  0  0  0  0  0  0  0
   -1.9438    1.4964    1.6145 H   0  0  0  0  0  0  0  0  0  0  0  0
   -1.2498   -0.0870    1.8846 H   0  0  0  0  0  0  0  0  0  0  0  0
    0.1505    1.5630    0.0010 H   0  0  0  0  0  0  0  0  0  0  0  0
    2.2656    1.3202   -0.7846 H   0  0  0  0  0  0  0  0  0  0  0  0
    1.7906   -0.1470   -1.6505 H   0  0  0  0  0  0  0  0  0  0  0  0
    2.3763   -0.0111    1.3631 H   0  0  0  0  0  0  0  0  0  0  0  0
    1.9412   -1.4686    0.4923 H   0  0  0  0  0  0  0  0  0  0  0  0
    7.8015    0.6231   -1.1142 H   0  0  0  0  0  0  0  0  0  0  0  0
    7.8620    0.4457    0.6535 H   0  0  0  0  0  0  0  0  0  0  0  0
    6.8894    1.7312   -0.0820 H   0  0  0  0  0  0  0  0  0  0  0  0
  1  2  1  0
  2  3  1  0
  3  4  1  0
  4  5  1  0
  5  6  1  0
  6  7  1  0
  7  8  1  0
  8  9  1  0
  8 10  1  6
 10 11  2  0
 10 12  1  0
 12 13  1  0
 13 14  1  0
 14 15  1  0
 15 16  2  0
 16 17  1  0
 17 18  1  0
 17 19  2  0
 19 20  1  0
 19 21  1  0
  9  2  1  0
  8  4  1  0
 21 15  1  0
  1 22  1  0
  1 23  1  0
  1 24  1  0
  3 25  1  0
  3 26  1  0
  4 27  1  6
  5 28  1  0
  5 29  1  0
  6 30  1  0
  7 31  1  0
  7 32  1  0
  9 33  1  0
  9 34  1  0
 12 35  1  0
 13 36  1  0
 13 37  1  0
 14 38  1  0
 14 39  1  0
 18 40  1  0
 18 41  1  0
 18 42  1  0
M  END
>  <Unnamed: 0>  (197) 
1173

>  <ID>  (197) 
TRAIN_1173

>  <Canonical_Smiles>  (197) 
CN1C[C@H]2CNC[C@]2(C1)C(=O)NCCc3nc(C)c(Cl)s3

>  <Inhibition>  (197) 
38.5

>  <TDC_conf_true_inhibitor>  (197) 
0

>  <TDC_conf_non_inhibitor>  (197) 
1

>  <split>  (197) 
1

$$$$
197
     RDKit          3D

 46 49  0  0  0  0  0  0  0  0999 V2000
   -5.9035    0.4180    2.0670 C   0  0  0  0  0  0  0  0  0  0  0  0
   -4.6375    0.2925    1.2740 C   0  0  0  0  0  0  0  0  0  0  0  0
   -4.4922   -0.7176    0.3213 C   0  0  0  0  0  0  0  0  0  0  0  0
   -3.3230   -0.8187   -0.4428 C   0  0  0  0  0  0  0  0  0  0  0  0
   -2.2691    0.0986   -0.2940 C   0  0  0  0  0  0  0  0  0  0  0  0
   -2.4342    1.1100    0.6747 C   0  0  0  0  0  0  0  0  0  0  0  0
   -3.6014    1.2121    1.4387 C   0  0  0  0  0  0  0  0  0  0  0  0
   -0.9739    0.0105   -1.1203 C   0  0  0  0  0  0  0  0  0  0  0  0
   -0.5708    1.3691   -1.7433 C   0  0  0  0  0  0  0  0  0  0  0  0
   -1.4254    1.4928   -3.0037 C   0  0  0  0  0  0  0  0  0  0  0  0
   -1.7174    0.0619   -3.4470 C   0  0  0  0  0  0  0  0  0  0  0  0
   -1.0359   -0.8341   -2.4156 C   0  0  0  0  0  0  0  0  0  0  0  0
    0.0456   -0.5144   -0.1467 C   0  0  0  0  0  0  0  0  0  0  0  0
    0.2576   -1.8252    0.0559 N   0  0  0  0  0  0  0  0  0  0  0  0
    1.2679   -1.8489    1.0136 O   0  0  0  0  0  0  0  0  0  0  0  0
    1.5722   -0.5486    1.2907 C   0  0  0  0  0  0  0  0  0  0  0  0
    2.6135   -0.3153    2.3105 C   0  0  0  0  0  0  0  0  0  0  0  0
    3.9318   -0.3545    1.7091 N   0  0  0  0  0  0  0  0  0  0  0  0
    4.7341   -1.4551    1.6161 C   0  0  0  0  0  0  0  0  0  0  0  0
    5.8877   -1.1586    1.0631 N   0  0  0  0  0  0  0  0  0  0  0  0
    5.8302    0.1864    0.7816 C   0  0  0  0  0  0  0  0  0  0  0  0
    6.9733    0.8704    0.1395 C   0  0  0  0  0  0  0  0  0  0  0  0
    4.6191    0.7066    1.1867 C   0  0  0  0  0  0  0  0  0  0  0  0
    0.8510    0.3129    0.6081 N   0  0  0  0  0  0  0  0  0  0  0  0
   -6.6133    1.0624    1.5392 H   0  0  0  0  0  0  0  0  0  0  0  0
   -6.3652   -0.5625    2.2247 H   0  0  0  0  0  0  0  0  0  0  0  0
   -5.7044    0.8453    3.0556 H   0  0  0  0  0  0  0  0  0  0  0  0
   -5.2880   -1.4433    0.1669 H   0  0  0  0  0  0  0  0  0  0  0  0
   -3.2655   -1.6393   -1.1518 H   0  0  0  0  0  0  0  0  0  0  0  0
   -1.6416    1.8328    0.8603 H   0  0  0  0  0  0  0  0  0  0  0  0
   -3.6890    2.0140    2.1683 H   0  0  0  0  0  0  0  0  0  0  0  0
    0.4886    1.3514   -2.0367 H   0  0  0  0  0  0  0  0  0  0  0  0
   -0.6953    2.2390   -1.0923 H   0  0  0  0  0  0  0  0  0  0  0  0
   -2.3637    2.0142   -2.7823 H   0  0  0  0  0  0  0  0  0  0  0  0
   -0.9076    2.0632   -3.7813 H   0  0  0  0  0  0  0  0  0  0  0  0
   -2.7989   -0.1135   -3.4615 H   0  0  0  0  0  0  0  0  0  0  0  0
   -1.3395   -0.1362   -4.4551 H   0  0  0  0  0  0  0  0  0  0  0  0
   -0.0170   -1.0514   -2.7686 H   0  0  0  0  0  0  0  0  0  0  0  0
   -1.5300   -1.8045   -2.3188 H   0  0  0  0  0  0  0  0  0  0  0  0
    2.5771   -1.0724    3.1012 H   0  0  0  0  0  0  0  0  0  0  0  0
    2.4880    0.6667    2.7788 H   0  0  0  0  0  0  0  0  0  0  0  0
    4.4382   -2.4381    1.9604 H   0  0  0  0  0  0  0  0  0  0  0  0
    7.7951    0.9846    0.8534 H   0  0  0  0  0  0  0  0  0  0  0  0
    6.6894    1.8645   -0.2208 H   0  0  0  0  0  0  0  0  0  0  0  0
    7.3354    0.2897   -0.7149 H   0  0  0  0  0  0  0  0  0  0  0  0
    4.2073    1.7056    1.1382 H   0  0  0  0  0  0  0  0  0  0  0  0
  1  2  1  0
  2  3  2  0
  3  4  1  0
  4  5  2  0
  5  6  1  0
  6  7  2  0
  5  8  1  0
  8  9  1  0
  9 10  1  0
 10 11  1  0
 11 12  1  0
  8 13  1  0
 13 14  2  0
 14 15  1  0
 15 16  1  0
 16 17  1  0
 17 18  1  0
 18 19  1  0
 19 20  2  0
 20 21  1  0
 21 22  1  0
 21 23  2  0
 16 24  2  0
  7  2  1  0
 12  8  1  0
 24 13  1  0
 23 18  1  0
  1 25  1  0
  1 26  1  0
  1 27  1  0
  3 28  1  0
  4 29  1  0
  6 30  1  0
  7 31  1  0
  9 32  1  0
  9 33  1  0
 10 34  1  0
 10 35  1  0
 11 36  1  0
 11 37  1  0
 12 38  1  0
 12 39  1  0
 17 40  1  0
 17 41  1  0
 19 42  1  0
 22 43  1  0
 22 44  1  0
 22 45  1  0
 23 46  1  0
M  END
>  <Unnamed: 0>  (198) 
1175

>  <ID>  (198) 
TRAIN_1175

>  <Canonical_Smiles>  (198) 
Cc1ccc(cc1)C2(CCCC2)c3noc(Cn4cnc(C)c4)n3

>  <Inhibition>  (198) 
92.5

>  <TDC_conf_true_inhibitor>  (198) 
1

>  <TDC_conf_non_inhibitor>  (198) 
0

>  <split>  (198) 
1

$$$$
198
     RDKit          3D

 55 60  0  0  0  0  0  0  0  0999 V2000
   -2.9703    2.7090    3.1608 O   0  0  0  0  0  0  0  0  0  0  0  0
   -3.1680    3.2269    2.0680 C   0  0  0  0  0  0  0  0  0  0  0  0
   -3.9930    4.3012    1.9104 N   0  0  0  0  0  0  0  0  0  0  0  0
   -4.1921    4.8840    0.6960 C   0  0  0  0  0  0  0  0  0  0  0  0
   -3.6399    4.4847   -0.3979 N   0  0  0  0  0  0  0  0  0  0  0  0
   -2.8029    3.3950   -0.3098 C   0  0  0  0  0  0  0  0  0  0  0  0
   -2.5293    2.7387    0.8321 C   0  0  0  0  0  0  0  0  0  0  0  0
   -1.6262    1.5484    0.9489 C   0  0  0  0  0  0  0  0  0  0  0  0
   -1.3619    0.9849   -0.3934 N   0  0  0  0  0  0  0  0  0  0  0  0
   -0.9720    2.0131   -1.3723 C   0  0  0  0  0  0  0  0  0  0  0  0
   -2.1617    2.9533   -1.6049 C   0  0  0  0  0  0  0  0  0  0  0  0
   -0.3973   -0.0366   -0.2815 C   0  0  0  0  0  0  0  0  0  0  0  0
    0.9176    0.2743   -0.3653 N   0  0  0  0  0  0  0  0  0  0  0  0
    1.8380   -0.6950   -0.2245 C   0  0  0  0  0  0  0  0  0  0  0  0
    3.2324   -0.2509   -0.3275 C   0  0  0  0  0  0  0  0  0  0  0  0
    4.3008   -1.0593   -0.2237 C   0  0  0  0  0  0  0  0  0  0  0  0
    5.6933   -0.5997   -0.3179 C   0  0  0  0  0  0  0  0  0  0  0  0
    6.0940    0.4050   -1.2084 C   0  0  0  0  0  0  0  0  0  0  0  0
    7.4345    0.7924   -1.2871 C   0  0  0  0  0  0  0  0  0  0  0  0
    8.3893    0.1722   -0.4841 C   0  0  0  0  0  0  0  0  0  0  0  0
    8.0060   -0.8392    0.3937 C   0  0  0  0  0  0  0  0  0  0  0  0
    6.6659   -1.2268    0.4719 C   0  0  0  0  0  0  0  0  0  0  0  0
    1.6031   -1.9897    0.0008 N   0  0  0  0  0  0  0  0  0  0  0  0
    0.2945   -2.2765    0.0625 C   0  0  0  0  0  0  0  0  0  0  0  0
   -0.2162   -3.8788    0.3388 S   0  0  0  0  0  0  0  0  0  0  0  0
   -1.8529   -3.4312    0.2586 C   0  0  0  0  0  0  0  0  0  0  0  0
   -2.9531   -4.4381    0.3933 C   0  0  0  0  0  0  0  0  0  0  0  0
   -4.3014   -3.7370    0.6134 C   0  0  0  0  0  0  0  0  0  0  0  0
   -4.4778   -2.5426   -0.3333 C   0  0  0  0  0  0  0  0  0  0  0  0
   -3.3956   -1.4746   -0.1065 C   0  0  0  0  0  0  0  0  0  0  0  0
   -2.0255   -2.0795    0.0181 C   0  0  0  0  0  0  0  0  0  0  0  0
   -0.7595   -1.3860   -0.0733 C   0  0  0  0  0  0  0  0  0  0  0  0
   -4.4433    4.6550    2.7408 H   0  0  0  0  0  0  0  0  0  0  0  0
   -4.8769    5.7461    0.7164 H   0  0  0  0  0  0  0  0  0  0  0  0
   -2.1028    0.7843    1.5746 H   0  0  0  0  0  0  0  0  0  0  0  0
   -0.6934    1.8587    1.4396 H   0  0  0  0  0  0  0  0  0  0  0  0
   -0.1088    2.5933   -1.0169 H   0  0  0  0  0  0  0  0  0  0  0  0
   -0.6979    1.5539   -2.3308 H   0  0  0  0  0  0  0  0  0  0  0  0
   -2.9219    2.4428   -2.2097 H   0  0  0  0  0  0  0  0  0  0  0  0
   -1.8187    3.8239   -2.1764 H   0  0  0  0  0  0  0  0  0  0  0  0
    3.3476    0.8160   -0.4862 H   0  0  0  0  0  0  0  0  0  0  0  0
    4.1670   -2.1236   -0.0374 H   0  0  0  0  0  0  0  0  0  0  0  0
    5.3713    0.8894   -1.8603 H   0  0  0  0  0  0  0  0  0  0  0  0
    7.7326    1.5743   -1.9806 H   0  0  0  0  0  0  0  0  0  0  0  0
    9.4318    0.4726   -0.5466 H   0  0  0  0  0  0  0  0  0  0  0  0
    8.7491   -1.3293    1.0174 H   0  0  0  0  0  0  0  0  0  0  0  0
    6.3863   -2.0193    1.1628 H   0  0  0  0  0  0  0  0  0  0  0  0
   -2.7599   -5.1245    1.2256 H   0  0  0  0  0  0  0  0  0  0  0  0
   -3.0014   -5.0358   -0.5254 H   0  0  0  0  0  0  0  0  0  0  0  0
   -5.1153   -4.4559    0.4666 H   0  0  0  0  0  0  0  0  0  0  0  0
   -4.3684   -3.3850    1.6511 H   0  0  0  0  0  0  0  0  0  0  0  0
   -5.4676   -2.0944   -0.1910 H   0  0  0  0  0  0  0  0  0  0  0  0
   -4.4325   -2.8971   -1.3711 H   0  0  0  0  0  0  0  0  0  0  0  0
   -3.6225   -0.9281    0.8165 H   0  0  0  0  0  0  0  0  0  0  0  0
   -3.4274   -0.7587   -0.9349 H   0  0  0  0  0  0  0  0  0  0  0  0
  1  2  2  0
  2  3  1  0
  3  4  1  0
  4  5  2  0
  5  6  1  0
  6  7  2  0
  7  8  1  0
  8  9  1  0
  9 10  1  0
 10 11  1  0
  9 12  1  0
 12 13  2  0
 13 14  1  0
 14 15  1  0
 15 16  2  0
 16 17  1  0
 17 18  2  0
 18 19  1  0
 19 20  2  0
 20 21  1  0
 21 22  2  0
 14 23  2  0
 23 24  1  0
 24 25  1  0
 25 26  1  0
 26 27  1  0
 27 28  1  0
 28 29  1  0
 29 30  1  0
 30 31  1  0
 31 32  1  0
  7  2  1  0
 11  6  1  0
 32 12  1  0
 22 17  1  0
 32 24  2  0
 31 26  2  0
  3 33  1  0
  4 34  1  0
  8 35  1  0
  8 36  1  0
 10 37  1  0
 10 38  1  0
 11 39  1  0
 11 40  1  0
 15 41  1  0
 16 42  1  0
 18 43  1  0
 19 44  1  0
 20 45  1  0
 21 46  1  0
 22 47  1  0
 27 48  1  0
 27 49  1  0
 28 50  1  0
 28 51  1  0
 29 52  1  0
 29 53  1  0
 30 54  1  0
 30 55  1  0
M  END
>  <Unnamed: 0>  (199) 
1187

>  <ID>  (199) 
TRAIN_1187

>  <Canonical_Smiles>  (199) 
O=C1NC=NC2=C1CN(CC2)c3nc(\C=C\c4ccccc4)nc5sc6CCCCc6c35

>  <Inhibition>  (199) 
70.5

>  <TDC_conf_true_inhibitor>  (199) 
1

>  <TDC_conf_non_inhibitor>  (199) 
0

>  <split>  (199) 
1

$$$$
199
     RDKit          3D

 34 35  0  0  0  0  0  0  0  0999 V2000
    1.5095   -0.7838   -1.7115 C   0  0  0  0  0  0  0  0  0  0  0  0
    0.6443   -0.4801   -0.4698 C   0  0  0  0  0  0  0  0  0  0  0  0
    1.0972    0.8830    0.1255 C   0  0  0  0  0  0  0  0  0  0  0  0
    2.4905    0.8535    0.6960 C   0  0  0  0  0  0  0  0  0  0  0  0
    3.4993    1.6550    0.1686 C   0  0  0  0  0  0  0  0  0  0  0  0
    4.7607    1.6688    0.6595 N   0  0  0  0  0  0  0  0  0  0  0  0
    4.9779    0.8499    1.7126 C   0  0  0  0  0  0  0  0  0  0  0  0
    3.9816    0.0542    2.2490 C   0  0  0  0  0  0  0  0  0  0  0  0
    2.7219    0.0371    1.7559 N   0  0  0  0  0  0  0  0  0  0  0  0
   -0.8207   -0.4186   -0.7552 N   0  0  0  0  0  0  0  0  0  0  0  0
   -1.2650   -1.3759   -1.7767 C   0  0  0  0  0  0  0  0  0  0  0  0
   -1.5976   -0.6482    0.4891 C   0  0  0  0  0  0  0  0  0  0  0  0
   -2.9988   -0.1487    0.3707 C   0  0  0  0  0  0  0  0  0  0  0  0
   -3.9929   -1.0555    0.5977 O   0  0  0  0  0  0  0  0  0  0  0  0
   -5.1779   -0.4039    0.4362 C   0  0  0  0  0  0  0  0  0  0  0  0
   -6.7057   -1.1654    0.6278 Cl  0  0  0  0  0  0  0  0  0  0  0  0
   -4.9491    0.9138    0.1053 C   0  0  0  0  0  0  0  0  0  0  0  0
   -3.5439    1.0812    0.0658 C   0  0  0  0  0  0  0  0  0  0  0  0
    1.2909   -1.7726   -2.1251 H   0  0  0  0  0  0  0  0  0  0  0  0
    1.3575   -0.0355   -2.4964 H   0  0  0  0  0  0  0  0  0  0  0  0
    2.5755   -0.7917   -1.4617 H   0  0  0  0  0  0  0  0  0  0  0  0
    0.8337   -1.2894    0.2493 H   0  0  0  0  0  0  0  0  0  0  0  0
    1.0168    1.6631   -0.6439 H   0  0  0  0  0  0  0  0  0  0  0  0
    0.4401    1.2042    0.9409 H   0  0  0  0  0  0  0  0  0  0  0  0
    3.3233    2.3144   -0.6750 H   0  0  0  0  0  0  0  0  0  0  0  0
    5.9826    0.8519    2.1188 H   0  0  0  0  0  0  0  0  0  0  0  0
    4.1701   -0.5968    3.0949 H   0  0  0  0  0  0  0  0  0  0  0  0
   -0.8377   -1.1322   -2.7548 H   0  0  0  0  0  0  0  0  0  0  0  0
   -0.9988   -2.4071   -1.5185 H   0  0  0  0  0  0  0  0  0  0  0  0
   -2.3499   -1.3359   -1.9246 H   0  0  0  0  0  0  0  0  0  0  0  0
   -1.5877   -1.7122    0.7612 H   0  0  0  0  0  0  0  0  0  0  0  0
   -1.1539   -0.1162    1.3377 H   0  0  0  0  0  0  0  0  0  0  0  0
   -5.7067    1.6601   -0.0845 H   0  0  0  0  0  0  0  0  0  0  0  0
   -2.9873    1.9792   -0.1649 H   0  0  0  0  0  0  0  0  0  0  0  0
  1  2  1  0
  2  3  1  0
  3  4  1  0
  4  5  2  0
  5  6  1  0
  6  7  2  0
  7  8  1  0
  8  9  2  0
  2 10  1  0
 10 11  1  0
 10 12  1  0
 12 13  1  0
 13 14  1  0
 14 15  1  0
 15 16  1  0
 15 17  2  0
 17 18  1  0
  9  4  1  0
 18 13  2  0
  1 19  1  0
  1 20  1  0
  1 21  1  0
  2 22  1  0
  3 23  1  0
  3 24  1  0
  5 25  1  0
  7 26  1  0
  8 27  1  0
 11 28  1  0
 11 29  1  0
 11 30  1  0
 12 31  1  0
 12 32  1  0
 17 33  1  0
 18 34  1  0
M  END
>  <Unnamed: 0>  (200) 
1193

>  <ID>  (200) 
TRAIN_1193

>  <Canonical_Smiles>  (200) 
CC(Cc1cnccn1)N(C)Cc2oc(Cl)cc2

>  <Inhibition>  (200) 
27.2

>  <TDC_conf_true_inhibitor>  (200) 
1

>  <TDC_conf_non_inhibitor>  (200) 
0

>  <split>  (200) 
1

$$$$
200
     RDKit          3D

 41 42  0  0  0  0  0  0  0  0999 V2000
   -2.7633    0.1190   -3.0311 C   0  0  0  0  0  0  0  0  0  0  0  0
   -2.9543   -0.5461   -1.6824 C   0  0  0  0  0  0  0  0  0  0  0  0
   -2.2715    0.2414   -0.6984 O   0  0  0  0  0  0  0  0  0  0  0  0
   -2.2566   -0.2944    0.5551 C   0  0  0  0  0  0  0  0  0  0  0  0
   -2.7953   -1.3586    0.8434 O   0  0  0  0  0  0  0  0  0  0  0  0
   -1.5275    0.6173    1.5636 C   0  0  0  0  0  0  0  0  0  0  0  0
   -0.8574    1.8406    0.9118 C   0  0  0  0  0  0  0  0  0  0  0  0
   -0.2570    3.0975    2.1070 S   0  0  0  0  0  0  0  0  0  0  0  0
   -0.4016    2.1327    3.6475 C   0  0  0  0  0  0  0  0  0  0  0  0
    0.1034    0.6997    3.4553 C   0  0  0  0  0  0  0  0  0  0  0  0
   -0.6566   -0.1269    2.5111 N   0  0  0  0  0  0  0  0  0  0  0  0
    0.0780   -1.3063    2.0359 C   0  0  0  0  0  0  0  0  0  0  0  0
    0.9026   -1.1480    0.7730 C   0  0  0  0  0  0  0  0  0  0  0  0
    0.4896   -1.7745   -0.4136 C   0  0  0  0  0  0  0  0  0  0  0  0
    1.2240   -1.6345   -1.5940 C   0  0  0  0  0  0  0  0  0  0  0  0
    2.3938   -0.8699   -1.6093 C   0  0  0  0  0  0  0  0  0  0  0  0
    2.8406   -0.2780   -0.4238 C   0  0  0  0  0  0  0  0  0  0  0  0
    2.1015   -0.4213    0.7565 C   0  0  0  0  0  0  0  0  0  0  0  0
    3.1372   -0.7422   -2.8912 C   0  0  0  0  0  0  0  0  0  0  0  0
    2.9696   -1.5291   -3.8142 O   0  0  0  0  0  0  0  0  0  0  0  0
    3.9917    0.3175   -3.0240 N   0  0  0  0  0  0  0  0  0  0  0  0
   -3.1564    1.1409   -3.0167 H   0  0  0  0  0  0  0  0  0  0  0  0
   -1.6985    0.1911   -3.2771 H   0  0  0  0  0  0  0  0  0  0  0  0
   -3.2707   -0.4440   -3.8193 H   0  0  0  0  0  0  0  0  0  0  0  0
   -4.0207   -0.5910   -1.4360 H   0  0  0  0  0  0  0  0  0  0  0  0
   -2.5388   -1.5594   -1.7102 H   0  0  0  0  0  0  0  0  0  0  0  0
   -2.3687    1.0072    2.1568 H   0  0  0  0  0  0  0  0  0  0  0  0
   -0.0154    1.5463    0.2792 H   0  0  0  0  0  0  0  0  0  0  0  0
   -1.5656    2.3665    0.2622 H   0  0  0  0  0  0  0  0  0  0  0  0
   -1.4416    2.1464    3.9903 H   0  0  0  0  0  0  0  0  0  0  0  0
    0.1965    2.6351    4.4148 H   0  0  0  0  0  0  0  0  0  0  0  0
    1.1604    0.7562    3.1780 H   0  0  0  0  0  0  0  0  0  0  0  0
    0.0756    0.1987    4.4309 H   0  0  0  0  0  0  0  0  0  0  0  0
   -0.6343   -2.1293    1.9002 H   0  0  0  0  0  0  0  0  0  0  0  0
    0.7417   -1.6799    2.8286 H   0  0  0  0  0  0  0  0  0  0  0  0
   -0.4122   -2.3853   -0.4282 H   0  0  0  0  0  0  0  0  0  0  0  0
    0.8803   -2.1263   -2.5022 H   0  0  0  0  0  0  0  0  0  0  0  0
    3.7744    0.2754   -0.3893 H   0  0  0  0  0  0  0  0  0  0  0  0
    2.4857    0.0348    1.6644 H   0  0  0  0  0  0  0  0  0  0  0  0
    4.3799    0.4525   -3.9492 H   0  0  0  0  0  0  0  0  0  0  0  0
    3.9373    1.1280   -2.4246 H   0  0  0  0  0  0  0  0  0  0  0  0
  1  2  1  0
  2  3  1  0
  3  4  1  0
  4  5  2  0
  4  6  1  0
  6  7  1  0
  7  8  1  0
  8  9  1  0
  9 10  1  0
 10 11  1  0
 11 12  1  0
 12 13  1  0
 13 14  2  0
 14 15  1  0
 15 16  2  0
 16 17  1  0
 17 18  2  0
 16 19  1  0
 19 20  2  0
 19 21  1  0
 11  6  1  0
 18 13  1  0
  1 22  1  0
  1 23  1  0
  1 24  1  0
  2 25  1  0
  2 26  1  0
  6 27  1  0
  7 28  1  0
  7 29  1  0
  9 30  1  0
  9 31  1  0
 10 32  1  0
 10 33  1  0
 12 34  1  0
 12 35  1  0
 14 36  1  0
 15 37  1  0
 17 38  1  0
 18 39  1  0
 21 40  1  0
 21 41  1  0
M  END
>  <Unnamed: 0>  (201) 
1199

>  <ID>  (201) 
TRAIN_1199

>  <Canonical_Smiles>  (201) 
CCOC(=O)C1CSCCN1Cc2ccc(cc2)C(=O)N

>  <Inhibition>  (201) 
13.5

>  <TDC_conf_true_inhibitor>  (201) 
0

>  <TDC_conf_non_inhibitor>  (201) 
1

>  <split>  (201) 
1

$$$$
201
     RDKit          3D

 55 57  0  0  0  0  0  0  0  0999 V2000
   -0.5270    3.6438   -2.1454 C   0  0  0  0  0  0  0  0  0  0  0  0
   -1.3143    2.4952   -1.5144 C   0  0  0  0  0  0  0  0  0  0  0  0
   -1.2488    1.2466   -2.3878 C   0  0  0  0  0  0  0  0  0  0  0  0
   -0.8386    2.2745   -0.1202 N   0  0  0  0  0  0  0  0  0  0  0  0
    0.4564    1.7209    0.1439 C   0  0  0  0  0  0  0  0  0  0  0  0
    0.7265    0.3623   -0.0042 C   0  0  0  0  0  0  0  0  0  0  0  0
    2.0031   -0.1351    0.2816 C   0  0  0  0  0  0  0  0  0  0  0  0
    3.0239    0.7079    0.7339 C   0  0  0  0  0  0  0  0  0  0  0  0
    4.3284    0.2574    0.9958 N   0  0  0  0  0  0  0  0  0  0  0  0
    5.0538   -0.8501    0.5241 C   0  0  0  0  0  0  0  0  0  0  0  0
    6.0503   -1.4060    1.3395 C   0  0  0  0  0  0  0  0  0  0  0  0
    6.7736   -2.5303    0.9310 C   0  0  0  0  0  0  0  0  0  0  0  0
    6.5069   -3.1194   -0.3016 C   0  0  0  0  0  0  0  0  0  0  0  0
    5.5180   -2.5842   -1.1223 C   0  0  0  0  0  0  0  0  0  0  0  0
    4.7956   -1.4608   -0.7083 C   0  0  0  0  0  0  0  0  0  0  0  0
    2.7351    2.0713    0.8813 C   0  0  0  0  0  0  0  0  0  0  0  0
    1.4623    2.5742    0.5940 C   0  0  0  0  0  0  0  0  0  0  0  0
   -1.9607    2.2763    1.1585 S   0  0  0  0  0  6  0  0  0  0  0  0
   -3.0655    3.1484    0.8101 O   0  0  0  0  0  0  0  0  0  0  0  0
   -1.2656    2.4479    2.4180 O   0  0  0  0  0  0  0  0  0  0  0  0
   -2.6022    0.6149    1.1377 C   0  0  0  0  0  0  0  0  0  0  0  0
   -2.0438   -0.3557    1.9703 C   0  0  0  0  0  0  0  0  0  0  0  0
   -2.5607   -1.6514    1.9597 C   0  0  0  0  0  0  0  0  0  0  0  0
   -3.6559   -1.9842    1.1431 C   0  0  0  0  0  0  0  0  0  0  0  0
   -4.1726   -3.3972    1.1617 C   0  0  0  0  0  0  0  0  0  0  0  0
   -4.2294   -0.9852    0.3293 C   0  0  0  0  0  0  0  0  0  0  0  0
   -3.7034    0.3148    0.3325 C   0  0  0  0  0  0  0  0  0  0  0  0
   -5.3796   -1.2825   -0.5677 C   0  0  0  0  0  0  0  0  0  0  0  0
   -5.4704   -2.3278   -1.1950 O   0  0  0  0  0  0  0  0  0  0  0  0
   -6.3504   -0.3226   -0.6471 N   0  0  0  0  0  0  0  0  0  0  0  0
    0.5290    3.3869   -2.2772 H   0  0  0  0  0  0  0  0  0  0  0  0
   -0.5774    4.5407   -1.5194 H   0  0  0  0  0  0  0  0  0  0  0  0
   -0.9338    3.8966   -3.1305 H   0  0  0  0  0  0  0  0  0  0  0  0
   -2.3633    2.8105   -1.4917 H   0  0  0  0  0  0  0  0  0  0  0  0
   -1.7286    1.4352   -3.3548 H   0  0  0  0  0  0  0  0  0  0  0  0
   -1.7667    0.4033   -1.9224 H   0  0  0  0  0  0  0  0  0  0  0  0
   -0.2175    0.9436   -2.5955 H   0  0  0  0  0  0  0  0  0  0  0  0
   -0.0403   -0.3305   -0.3358 H   0  0  0  0  0  0  0  0  0  0  0  0
    2.1790   -1.2029    0.1797 H   0  0  0  0  0  0  0  0  0  0  0  0
    4.8312    0.8202    1.6728 H   0  0  0  0  0  0  0  0  0  0  0  0
    6.2654   -0.9720    2.3126 H   0  0  0  0  0  0  0  0  0  0  0  0
    7.5409   -2.9463    1.5783 H   0  0  0  0  0  0  0  0  0  0  0  0
    7.0685   -3.9928   -0.6223 H   0  0  0  0  0  0  0  0  0  0  0  0
    5.3091   -3.0354   -2.0886 H   0  0  0  0  0  0  0  0  0  0  0  0
    4.0491   -1.0470   -1.3805 H   0  0  0  0  0  0  0  0  0  0  0  0
    3.5049    2.7615    1.2178 H   0  0  0  0  0  0  0  0  0  0  0  0
    1.2605    3.6335    0.7288 H   0  0  0  0  0  0  0  0  0  0  0  0
   -1.2027   -0.1163    2.6192 H   0  0  0  0  0  0  0  0  0  0  0  0
   -2.1047   -2.4044    2.6012 H   0  0  0  0  0  0  0  0  0  0  0  0
   -3.7507   -3.9639    1.9989 H   0  0  0  0  0  0  0  0  0  0  0  0
   -3.8973   -3.9137    0.2371 H   0  0  0  0  0  0  0  0  0  0  0  0
   -5.2599   -3.4118    1.2862 H   0  0  0  0  0  0  0  0  0  0  0  0
   -4.1319    1.0829   -0.3074 H   0  0  0  0  0  0  0  0  0  0  0  0
   -6.4212    0.4293    0.0251 H   0  0  0  0  0  0  0  0  0  0  0  0
   -7.1865   -0.5715   -1.1605 H   0  0  0  0  0  0  0  0  0  0  0  0
  1  2  1  0
  2  3  1  0
  2  4  1  0
  4  5  1  0
  5  6  2  0
  6  7  1  0
  7  8  2  0
  8  9  1  0
  9 10  1  0
 10 11  2  0
 11 12  1  0
 12 13  2  0
 13 14  1  0
 14 15  2  0
  8 16  1  0
 16 17  2  0
  4 18  1  0
 18 19  2  0
 18 20  2  0
 18 21  1  0
 21 22  2  0
 22 23  1  0
 23 24  2  0
 24 25  1  0
 24 26  1  0
 26 27  2  0
 26 28  1  0
 28 29  2  0
 28 30  1  0
 17  5  1  0
 15 10  1  0
 27 21  1  0
  1 31  1  0
  1 32  1  0
  1 33  1  0
  2 34  1  0
  3 35  1  0
  3 36  1  0
  3 37  1  0
  6 38  1  0
  7 39  1  0
  9 40  1  0
 11 41  1  0
 12 42  1  0
 13 43  1  0
 14 44  1  0
 15 45  1  0
 16 46  1  0
 17 47  1  0
 22 48  1  0
 23 49  1  0
 25 50  1  0
 25 51  1  0
 25 52  1  0
 27 53  1  0
 30 54  1  0
 30 55  1  0
M  END
>  <Unnamed: 0>  (202) 
1213

>  <ID>  (202) 
TRAIN_1213

>  <Canonical_Smiles>  (202) 
CC(C)N(c1ccc(Nc2ccccc2)cc1)S(=O)(=O)c3ccc(C)c(c3)C(=O)N

>  <Inhibition>  (202) 
84.1

>  <TDC_conf_true_inhibitor>  (202) 
1

>  <TDC_conf_non_inhibitor>  (202) 
0

>  <split>  (202) 
1

$$$$
202
     RDKit          3D

 50 53  0  0  0  0  0  0  0  0999 V2000
    6.3708   -2.8132    1.0408 C   0  0  0  0  0  0  0  0  0  0  0  0
    5.8630   -1.5814    0.3598 C   0  0  0  0  0  0  0  0  0  0  0  0
    6.7727   -0.8709   -0.5362 C   0  0  0  0  0  0  0  0  0  0  0  0
    6.3972    0.2483   -1.1844 C   0  0  0  0  0  0  0  0  0  0  0  0
    5.0847    0.7662   -1.0044 C   0  0  0  0  0  0  0  0  0  0  0  0
    4.5023    1.8310   -1.5098 N   0  0  0  0  0  0  0  0  0  0  0  0
    3.2405    1.8350   -0.9776 C   0  0  0  0  0  0  0  0  0  0  0  0
    3.0286    0.7491   -0.1485 C   0  0  0  0  0  0  0  0  0  0  0  0
    1.8465    0.3259    0.6465 C   0  0  0  0  0  0  0  0  0  0  0  0
    0.6352    0.9825    0.1654 N   0  0  0  0  0  0  0  0  0  0  0  0
   -0.5298    0.5805    0.9682 C   0  0  0  0  0  0  0  0  0  0  0  0
   -1.8000    1.2450    0.4923 C   0  0  0  0  0  0  0  0  0  0  0  0
   -1.8208    2.6302    0.2693 C   0  0  0  0  0  0  0  0  0  0  0  0
   -2.9972    3.2602   -0.1137 C   0  0  0  0  0  0  0  0  0  0  0  0
   -4.1399    2.4898   -0.2549 C   0  0  0  0  0  0  0  0  0  0  0  0
   -5.4324    3.1275   -0.6659 C   0  0  0  0  0  0  0  0  0  0  0  0
   -4.1517    1.1552   -0.0333 N   0  0  0  0  0  0  0  0  0  0  0  0
   -3.0036    0.5401    0.3434 C   0  0  0  0  0  0  0  0  0  0  0  0
   -3.0213   -0.8588    0.5419 N   0  0  0  0  0  0  0  0  0  0  0  0
   -2.8517   -1.5345   -0.7638 C   0  0  0  0  0  0  0  0  0  0  0  0
   -3.8184   -2.7126   -0.7212 C   0  0  0  0  0  0  0  0  0  0  0  0
   -4.9835   -2.1411    0.0618 C   0  0  0  0  0  0  0  0  0  0  0  0
   -4.2786   -1.3412    1.1509 C   0  0  0  0  0  0  0  0  0  0  0  0
    4.2324    0.0676   -0.1523 N   0  0  0  0  0  0  0  0  0  0  0  0
    4.6186   -1.0919    0.5257 C   0  0  0  0  0  0  0  0  0  0  0  0
    6.6716   -3.5648    0.3029 H   0  0  0  0  0  0  0  0  0  0  0  0
    5.6075   -3.2650    1.6833 H   0  0  0  0  0  0  0  0  0  0  0  0
    7.2364   -2.5767    1.6684 H   0  0  0  0  0  0  0  0  0  0  0  0
    7.7755   -1.2661   -0.6727 H   0  0  0  0  0  0  0  0  0  0  0  0
    7.0726    0.7764   -1.8474 H   0  0  0  0  0  0  0  0  0  0  0  0
    2.5358    2.6217   -1.2179 H   0  0  0  0  0  0  0  0  0  0  0  0
    1.7233   -0.7614    0.5777 H   0  0  0  0  0  0  0  0  0  0  0  0
    2.0234    0.5841    1.6977 H   0  0  0  0  0  0  0  0  0  0  0  0
    0.4669    0.6976   -0.7988 H   0  0  0  0  0  0  0  0  0  0  0  0
   -0.3800    0.8662    2.0171 H   0  0  0  0  0  0  0  0  0  0  0  0
   -0.6168   -0.5103    0.9382 H   0  0  0  0  0  0  0  0  0  0  0  0
   -0.9136    3.2167    0.3978 H   0  0  0  0  0  0  0  0  0  0  0  0
   -3.0150    4.3298   -0.2919 H   0  0  0  0  0  0  0  0  0  0  0  0
   -6.2309    2.3815   -0.7337 H   0  0  0  0  0  0  0  0  0  0  0  0
   -5.7323    3.8819    0.0681 H   0  0  0  0  0  0  0  0  0  0  0  0
   -5.3254    3.6016   -1.6465 H   0  0  0  0  0  0  0  0  0  0  0  0
   -3.1071   -0.8889   -1.6155 H   0  0  0  0  0  0  0  0  0  0  0  0
   -1.8189   -1.8756   -0.8910 H   0  0  0  0  0  0  0  0  0  0  0  0
   -4.1028   -3.0576   -1.7189 H   0  0  0  0  0  0  0  0  0  0  0  0
   -3.3709   -3.5536   -0.1779 H   0  0  0  0  0  0  0  0  0  0  0  0
   -5.5801   -1.4769   -0.5747 H   0  0  0  0  0  0  0  0  0  0  0  0
   -5.6417   -2.9133    0.4691 H   0  0  0  0  0  0  0  0  0  0  0  0
   -4.0068   -2.0119    1.9754 H   0  0  0  0  0  0  0  0  0  0  0  0
   -4.9224   -0.5637    1.5780 H   0  0  0  0  0  0  0  0  0  0  0  0
    3.8883   -1.5601    1.1725 H   0  0  0  0  0  0  0  0  0  0  0  0
  1  2  1  0
  2  3  1  0
  3  4  2  0
  4  5  1  0
  5  6  2  0
  6  7  1  0
  7  8  2  0
  8  9  1  0
  9 10  1  0
 10 11  1  0
 11 12  1  0
 12 13  2  0
 13 14  1  0
 14 15  2  0
 15 16  1  0
 15 17  1  0
 17 18  2  0
 18 19  1  0
 19 20  1  0
 20 21  1  0
 21 22  1  0
 22 23  1  0
  8 24  1  0
 24 25  1  0
 25  2  2  0
 24  5  1  0
 18 12  1  0
 23 19  1  0
  1 26  1  0
  1 27  1  0
  1 28  1  0
  3 29  1  0
  4 30  1  0
  7 31  1  0
  9 32  1  0
  9 33  1  0
 10 34  1  0
 11 35  1  0
 11 36  1  0
 13 37  1  0
 14 38  1  0
 16 39  1  0
 16 40  1  0
 16 41  1  0
 20 42  1  0
 20 43  1  0
 21 44  1  0
 21 45  1  0
 22 46  1  0
 22 47  1  0
 23 48  1  0
 23 49  1  0
 25 50  1  0
M  END
>  <Unnamed: 0>  (203) 
1214

>  <ID>  (203) 
TRAIN_1214

>  <Canonical_Smiles>  (203) 
Cc1ccc2ncc(CNCc3ccc(C)nc3N4CCCC4)n2c1

>  <Inhibition>  (203) 
81.5

>  <TDC_conf_true_inhibitor>  (203) 
1

>  <TDC_conf_non_inhibitor>  (203) 
0

>  <split>  (203) 
1

$$$$
203
     RDKit          3D

 45 47  0  0  0  0  0  0  0  0999 V2000
    4.0612    3.3077    0.5833 C   0  0  0  0  0  0  0  0  0  0  0  0
    3.7973    1.8432    0.4064 C   0  0  0  0  0  0  0  0  0  0  0  0
    2.5026    1.4702    0.2866 N   0  0  0  0  0  0  0  0  0  0  0  0
    2.1826    0.1584    0.1555 C   0  0  0  0  0  0  0  0  0  0  0  0
    0.8488   -0.2218    0.0238 N   0  0  0  0  0  0  0  0  0  0  0  0
   -0.0735    0.8409   -0.3814 C   0  0  0  0  0  0  0  0  0  0  0  0
   -1.4753    0.3698   -0.6956 C   0  0  0  0  0  0  0  0  0  0  0  0
   -2.5589    0.7195   -0.0331 N   0  0  0  0  0  0  0  0  0  0  0  0
   -3.6854    0.1137   -0.5738 C   0  0  0  0  0  0  0  0  0  0  0  0
   -3.4163   -0.7025   -1.6599 C   0  0  0  0  0  0  0  0  0  0  0  0
   -1.7431   -0.7000   -2.0168 S   0  0  0  0  0  0  0  0  0  0  0  0
   -5.0500    0.3786    0.0490 C   0  0  0  0  0  0  0  0  0  0  0  0
   -5.6091   -0.9205    0.6614 C   0  0  0  0  0  0  0  0  0  0  0  0
   -4.9635    1.4389    1.1675 C   0  0  0  0  0  0  0  0  0  0  0  0
   -6.0343    0.8972   -1.0192 C   0  0  0  0  0  0  0  0  0  0  0  0
    3.2362   -0.7676    0.1664 C   0  0  0  0  0  0  0  0  0  0  0  0
    3.4154   -2.1763    0.0890 C   0  0  0  0  0  0  0  0  0  0  0  0
    2.3747   -3.2266   -0.0315 C   0  0  0  0  0  0  0  0  0  0  0  0
    4.7107   -2.5244    0.1367 N   0  0  0  0  0  0  0  0  0  0  0  0
    5.3524   -1.3440    0.2781 N   0  0  0  0  0  0  0  0  0  0  0  0
    6.7898   -1.3240    0.3783 C   0  0  0  0  0  0  0  0  0  0  0  0
    4.5172   -0.2624    0.2966 C   0  0  0  0  0  0  0  0  0  0  0  0
    4.8671    1.0281    0.4186 N   0  0  0  0  0  0  0  0  0  0  0  0
    5.0208    3.5825    0.1343 H   0  0  0  0  0  0  0  0  0  0  0  0
    4.0873    3.5502    1.6496 H   0  0  0  0  0  0  0  0  0  0  0  0
    3.2771    3.9028    0.1049 H   0  0  0  0  0  0  0  0  0  0  0  0
    0.7333   -1.0829   -0.4944 H   0  0  0  0  0  0  0  0  0  0  0  0
   -0.1452    1.5853    0.4222 H   0  0  0  0  0  0  0  0  0  0  0  0
    0.3098    1.3573   -1.2722 H   0  0  0  0  0  0  0  0  0  0  0  0
   -4.1099   -1.2854   -2.2491 H   0  0  0  0  0  0  0  0  0  0  0  0
   -5.7428   -1.6992   -0.0989 H   0  0  0  0  0  0  0  0  0  0  0  0
   -6.5833   -0.7503    1.1336 H   0  0  0  0  0  0  0  0  0  0  0  0
   -4.9320   -1.3213    1.4257 H   0  0  0  0  0  0  0  0  0  0  0  0
   -4.3033    1.1117    1.9800 H   0  0  0  0  0  0  0  0  0  0  0  0
   -5.9493    1.6376    1.6042 H   0  0  0  0  0  0  0  0  0  0  0  0
   -4.5730    2.3900    0.7855 H   0  0  0  0  0  0  0  0  0  0  0  0
   -7.0121    1.1266   -0.5800 H   0  0  0  0  0  0  0  0  0  0  0  0
   -6.1975    0.1587   -1.8127 H   0  0  0  0  0  0  0  0  0  0  0  0
   -5.6568    1.8110   -1.4943 H   0  0  0  0  0  0  0  0  0  0  0  0
    2.8069   -4.2312    0.0306 H   0  0  0  0  0  0  0  0  0  0  0  0
    1.8574   -3.1417   -0.9925 H   0  0  0  0  0  0  0  0  0  0  0  0
    1.6368   -3.1298    0.7714 H   0  0  0  0  0  0  0  0  0  0  0  0
    7.1086   -2.1441    1.0274 H   0  0  0  0  0  0  0  0  0  0  0  0
    7.1186   -0.3736    0.8055 H   0  0  0  0  0  0  0  0  0  0  0  0
    7.2023   -1.4503   -0.6257 H   0  0  0  0  0  0  0  0  0  0  0  0
  1  2  1  0
  2  3  2  0
  3  4  1  0
  4  5  1  0
  5  6  1  0
  6  7  1  0
  7  8  2  0
  8  9  1  0
  9 10  2  0
 10 11  1  0
  9 12  1  0
 12 13  1  0
 12 14  1  0
 12 15  1  0
  4 16  2  0
 16 17  1  0
 17 18  1  0
 17 19  2  0
 19 20  1  0
 20 21  1  0
 20 22  1  0
 22 23  2  0
 23  2  1  0
 11  7  1  0
 22 16  1  0
  1 24  1  0
  1 25  1  0
  1 26  1  0
  5 27  1  0
  6 28  1  0
  6 29  1  0
 10 30  1  0
 13 31  1  0
 13 32  1  0
 13 33  1  0
 14 34  1  0
 14 35  1  0
 14 36  1  0
 15 37  1  0
 15 38  1  0
 15 39  1  0
 18 40  1  0
 18 41  1  0
 18 42  1  0
 21 43  1  0
 21 44  1  0
 21 45  1  0
M  END
>  <Unnamed: 0>  (204) 
1217

>  <ID>  (204) 
TRAIN_1217

>  <Canonical_Smiles>  (204) 
Cc1nc(NCc2nc(cs2)C(C)(C)C)c3c(C)nn(C)c3n1

>  <Inhibition>  (204) 
93.5

>  <TDC_conf_true_inhibitor>  (204) 
1

>  <TDC_conf_non_inhibitor>  (204) 
0

>  <split>  (204) 
1

$$$$
204
     RDKit          3D

 51 54  0  0  0  0  0  0  0  0999 V2000
   -6.8152    0.2102    0.6830 C   0  0  0  0  0  0  0  0  0  0  0  0
   -5.4816   -0.3240    0.5612 N   0  0  0  0  0  0  0  0  0  0  0  0
   -4.3960    0.4606    0.0531 C   0  0  0  0  0  0  0  0  0  0  0  0
   -3.2184   -0.4967    0.2025 C   0  0  0  0  0  0  0  0  0  0  0  0
   -2.9708   -1.3444   -1.0571 C   0  0  0  0  0  0  0  0  0  0  0  0
   -2.3065   -0.5301   -2.1659 C   0  0  0  0  0  0  0  0  0  0  0  0
   -1.0660    0.2097   -1.6567 C   0  0  0  0  0  0  0  0  0  0  0  0
   -1.3999    1.0494   -0.5014 N   0  0  0  0  0  0  0  0  0  0  0  0
   -0.3073    1.9388   -0.0768 C   0  0  0  0  0  0  0  0  0  0  0  0
    0.9652    1.2906    0.4555 C   0  0  0  0  0  0  0  0  0  0  0  0
    1.2266    1.2983    1.7740 C   0  0  0  0  0  0  0  0  0  0  0  0
    2.4859    0.7021    2.2753 C   0  0  0  0  0  0  0  0  0  0  0  0
    2.7265    0.6933    3.4774 O   0  0  0  0  0  0  0  0  0  0  0  0
    3.4276    0.1382    1.2788 C   0  0  0  0  0  0  0  0  0  0  0  0
    4.6313   -0.4327    1.7047 C   0  0  0  0  0  0  0  0  0  0  0  0
    5.5155   -0.9724    0.7683 C   0  0  0  0  0  0  0  0  0  0  0  0
    6.8248   -1.5571    1.2094 C   0  0  0  0  0  0  0  0  0  0  0  0
    5.1849   -0.9124   -0.5927 C   0  0  0  0  0  0  0  0  0  0  0  0
    3.9744   -0.3423   -1.0309 C   0  0  0  0  0  0  0  0  0  0  0  0
    3.6649   -0.3274   -2.5022 C   0  0  0  0  0  0  0  0  0  0  0  0
    3.0882    0.2038   -0.0845 C   0  0  0  0  0  0  0  0  0  0  0  0
    1.8516    0.7546   -0.4603 N   0  0  0  0  0  0  0  0  0  0  0  0
   -1.9238    0.2326    0.6056 C   0  0  0  0  0  0  0  0  0  0  0  0
   -3.6314   -1.3754    1.2696 O   0  0  0  0  0  0  0  0  0  0  0  0
   -4.9917   -1.2971    1.4009 C   0  0  0  0  0  0  0  0  0  0  0  0
   -5.6361   -1.9806    2.1783 O   0  0  0  0  0  0  0  0  0  0  0  0
   -7.1310    0.6114   -0.2834 H   0  0  0  0  0  0  0  0  0  0  0  0
   -7.5074   -0.5749    0.9997 H   0  0  0  0  0  0  0  0  0  0  0  0
   -6.8124    1.0041    1.4355 H   0  0  0  0  0  0  0  0  0  0  0  0
   -4.5988    0.7828   -0.9714 H   0  0  0  0  0  0  0  0  0  0  0  0
   -4.2956    1.3419    0.6973 H   0  0  0  0  0  0  0  0  0  0  0  0
   -2.3262   -2.1949   -0.7969 H   0  0  0  0  0  0  0  0  0  0  0  0
   -3.9052   -1.7875   -1.4226 H   0  0  0  0  0  0  0  0  0  0  0  0
   -3.0211    0.1916   -2.5795 H   0  0  0  0  0  0  0  0  0  0  0  0
   -2.0232   -1.1968   -2.9885 H   0  0  0  0  0  0  0  0  0  0  0  0
   -0.2952   -0.5292   -1.4071 H   0  0  0  0  0  0  0  0  0  0  0  0
   -0.6788    0.8298   -2.4738 H   0  0  0  0  0  0  0  0  0  0  0  0
   -0.0376    2.5916   -0.9185 H   0  0  0  0  0  0  0  0  0  0  0  0
   -0.7091    2.6314    0.6759 H   0  0  0  0  0  0  0  0  0  0  0  0
    0.5628    1.7210    2.5168 H   0  0  0  0  0  0  0  0  0  0  0  0
    4.8705   -0.4556    2.7662 H   0  0  0  0  0  0  0  0  0  0  0  0
    6.7429   -1.9872    2.2131 H   0  0  0  0  0  0  0  0  0  0  0  0
    7.5965   -0.7813    1.2188 H   0  0  0  0  0  0  0  0  0  0  0  0
    7.1391   -2.3619    0.5365 H   0  0  0  0  0  0  0  0  0  0  0  0
    5.8808   -1.3231   -1.3235 H   0  0  0  0  0  0  0  0  0  0  0  0
    4.4454   -0.8282   -3.0847 H   0  0  0  0  0  0  0  0  0  0  0  0
    3.5919    0.7036   -2.8629 H   0  0  0  0  0  0  0  0  0  0  0  0
    2.7232   -0.8508   -2.6979 H   0  0  0  0  0  0  0  0  0  0  0  0
    1.6793    0.9333   -1.4412 H   0  0  0  0  0  0  0  0  0  0  0  0
   -1.1826   -0.5057    0.9413 H   0  0  0  0  0  0  0  0  0  0  0  0
   -2.1311    0.8615    1.4817 H   0  0  0  0  0  0  0  0  0  0  0  0
  1  2  1  0
  2  3  1  0
  3  4  1  0
  4  5  1  0
  5  6  1  0
  6  7  1  0
  7  8  1  0
  8  9  1  0
  9 10  1  0
 10 11  2  0
 11 12  1  0
 12 13  2  0
 12 14  1  0
 14 15  2  0
 15 16  1  0
 16 17  1  0
 16 18  2  0
 18 19  1  0
 19 20  1  0
 19 21  2  0
 21 22  1  0
  8 23  1  0
  4 24  1  0
 24 25  1  0
 25 26  2  0
 25  2  1  0
 23  4  1  0
 22 10  1  0
 21 14  1  0
  1 27  1  0
  1 28  1  0
  1 29  1  0
  3 30  1  0
  3 31  1  0
  5 32  1  0
  5 33  1  0
  6 34  1  0
  6 35  1  0
  7 36  1  0
  7 37  1  0
  9 38  1  0
  9 39  1  0
 11 40  1  0
 15 41  1  0
 17 42  1  0
 17 43  1  0
 17 44  1  0
 18 45  1  0
 20 46  1  0
 20 47  1  0
 20 48  1  0
 22 49  1  0
 23 50  1  0
 23 51  1  0
M  END
>  <Unnamed: 0>  (205) 
1227

>  <ID>  (205) 
TRAIN_1227

>  <Canonical_Smiles>  (205) 
CN1CC2(CCCN(CC3=CC(=O)c4cc(C)cc(C)c4N3)C2)OC1=O

>  <Inhibition>  (205) 
36.7

>  <TDC_conf_true_inhibitor>  (205) 
1

>  <TDC_conf_non_inhibitor>  (205) 
0

>  <split>  (205) 
1

$$$$
205
     RDKit          3D

 41 44  0  0  0  0  0  0  0  0999 V2000
    0.0090   -1.1078    1.4089 C   0  0  0  0  0  0  0  0  0  0  0  0
    0.0495   -0.3897    0.1319 N   0  0  0  0  0  0  0  0  0  0  0  0
   -1.1072   -0.5431   -0.7730 C   0  0  0  0  0  0  0  0  0  0  0  0
   -1.7009   -1.9652   -0.9074 C   0  0  0  0  0  0  0  0  0  0  0  0
   -2.8969   -2.0721    0.0509 C   0  0  0  0  0  0  0  0  0  0  0  0
   -3.3123   -0.6438    0.1887 C   0  0  0  0  0  0  0  0  0  0  0  0
   -4.4946   -0.1530    0.7185 C   0  0  0  0  0  0  0  0  0  0  0  0
   -4.6678    1.2309    0.7863 C   0  0  0  0  0  0  0  0  0  0  0  0
   -3.6629    2.0999    0.3354 C   0  0  0  0  0  0  0  0  0  0  0  0
   -2.4705    1.5956   -0.1875 C   0  0  0  0  0  0  0  0  0  0  0  0
   -2.3036    0.2199   -0.2532 C   0  0  0  0  0  0  0  0  0  0  0  0
    1.2809   -0.6615   -0.5173 C   0  0  0  0  0  0  0  0  0  0  0  0
    1.3110   -1.7390   -1.3282 N   0  0  0  0  0  0  0  0  0  0  0  0
    2.4892   -2.0631   -1.8569 C   0  0  0  0  0  0  0  0  0  0  0  0
    3.6416   -1.4277   -1.6526 N   0  0  0  0  0  0  0  0  0  0  0  0
    3.6025   -0.3474   -0.8698 C   0  0  0  0  0  0  0  0  0  0  0  0
    4.8094    0.3069   -0.6723 C   0  0  0  0  0  0  0  0  0  0  0  0
    4.9121    1.4542    0.1077 C   0  0  0  0  0  0  0  0  0  0  0  0
    3.7736    1.9815    0.6938 C   0  0  0  0  0  0  0  0  0  0  0  0
    2.5277    1.3587    0.5118 C   0  0  0  0  0  0  0  0  0  0  0  0
    1.3299    2.0346    1.1269 C   0  0  0  0  0  0  0  0  0  0  0  0
    2.4313    0.1415   -0.2584 C   0  0  0  0  0  0  0  0  0  0  0  0
   -0.0187   -2.1950    1.2750 H   0  0  0  0  0  0  0  0  0  0  0  0
   -0.8691   -0.8074    1.9895 H   0  0  0  0  0  0  0  0  0  0  0  0
    0.8820   -0.8761    2.0304 H   0  0  0  0  0  0  0  0  0  0  0  0
   -0.8662   -0.1499   -1.7707 H   0  0  0  0  0  0  0  0  0  0  0  0
   -2.0791   -2.0803   -1.9338 H   0  0  0  0  0  0  0  0  0  0  0  0
   -0.9878   -2.7800   -0.7533 H   0  0  0  0  0  0  0  0  0  0  0  0
   -3.6896   -2.6944   -0.3747 H   0  0  0  0  0  0  0  0  0  0  0  0
   -2.5954   -2.4744    1.0229 H   0  0  0  0  0  0  0  0  0  0  0  0
   -5.2703   -0.8235    1.0742 H   0  0  0  0  0  0  0  0  0  0  0  0
   -5.5885    1.6403    1.1947 H   0  0  0  0  0  0  0  0  0  0  0  0
   -3.8134    3.1749    0.3962 H   0  0  0  0  0  0  0  0  0  0  0  0
   -1.6910    2.2657   -0.5347 H   0  0  0  0  0  0  0  0  0  0  0  0
    2.5146   -2.9298   -2.5076 H   0  0  0  0  0  0  0  0  0  0  0  0
    5.7056   -0.0909   -1.1448 H   0  0  0  0  0  0  0  0  0  0  0  0
    5.8753    1.9387    0.2415 H   0  0  0  0  0  0  0  0  0  0  0  0
    3.8576    2.8918    1.2843 H   0  0  0  0  0  0  0  0  0  0  0  0
    1.5841    3.0346    1.4972 H   0  0  0  0  0  0  0  0  0  0  0  0
    0.9532    1.4661    1.9800 H   0  0  0  0  0  0  0  0  0  0  0  0
    0.5458    2.1794    0.3800 H   0  0  0  0  0  0  0  0  0  0  0  0
  1  2  1  0
  2  3  1  0
  3  4  1  0
  4  5  1  0
  5  6  1  0
  6  7  2  0
  7  8  1  0
  8  9  2  0
  9 10  1  0
 10 11  2  0
  2 12  1  0
 12 13  2  0
 13 14  1  0
 14 15  2  0
 15 16  1  0
 16 17  2  0
 17 18  1  0
 18 19  2  0
 19 20  1  0
 20 21  1  0
 20 22  2  0
 11  3  1  0
 11  6  1  0
 22 12  1  0
 22 16  1  0
  1 23  1  0
  1 24  1  0
  1 25  1  0
  3 26  1  0
  4 27  1  0
  4 28  1  0
  5 29  1  0
  5 30  1  0
  7 31  1  0
  8 32  1  0
  9 33  1  0
 10 34  1  0
 14 35  1  0
 17 36  1  0
 18 37  1  0
 19 38  1  0
 21 39  1  0
 21 40  1  0
 21 41  1  0
M  END
>  <Unnamed: 0>  (206) 
1236

>  <ID>  (206) 
TRAIN_1236

>  <Canonical_Smiles>  (206) 
CN(C1CCc2ccccc12)c3ncnc4cccc(C)c34

>  <Inhibition>  (206) 
46.7

>  <TDC_conf_true_inhibitor>  (206) 
0

>  <TDC_conf_non_inhibitor>  (206) 
1

>  <split>  (206) 
1

$$$$
206
     RDKit          3D

 38 41  0  0  0  0  0  0  0  0999 V2000
   -4.5709   -3.2272   -1.1709 F   0  0  0  0  0  0  0  0  0  0  0  0
   -4.1995   -1.9427   -1.0921 C   0  0  0  0  0  0  0  0  0  0  0  0
   -4.6236   -1.0512   -2.0666 C   0  0  0  0  0  0  0  0  0  0  0  0
   -4.2355    0.2824   -1.9791 C   0  0  0  0  0  0  0  0  0  0  0  0
   -3.4232    0.7094   -0.9131 C   0  0  0  0  0  0  0  0  0  0  0  0
   -3.0154    2.0394   -0.7861 C   0  0  0  0  0  0  0  0  0  0  0  0
   -2.2094    2.4112    0.2850 C   0  0  0  0  0  0  0  0  0  0  0  0
   -1.8205    1.4449    1.2008 C   0  0  0  0  0  0  0  0  0  0  0  0
   -1.0153    1.7363    2.2989 N   0  0  0  0  0  0  0  0  0  0  0  0
    0.2852    2.3284    2.0096 C   0  0  0  0  0  0  0  0  0  0  0  0
    1.2472    1.3282    1.4269 C   0  0  0  0  0  0  0  0  0  0  0  0
    1.8706    0.3605    2.2180 C   0  0  0  0  0  0  0  0  0  0  0  0
    2.7469   -0.5589    1.6386 C   0  0  0  0  0  0  0  0  0  0  0  0
    2.9815   -0.4854    0.2681 C   0  0  0  0  0  0  0  0  0  0  0  0
    2.3867    0.4477   -0.5205 N   0  0  0  0  0  0  0  0  0  0  0  0
    1.5335    1.3162    0.0684 C   0  0  0  0  0  0  0  0  0  0  0  0
    3.8685   -1.4000   -0.3657 N   0  0  0  0  0  0  0  0  0  0  0  0
    4.1756   -1.4209   -1.7106 C   0  0  0  0  0  0  0  0  0  0  0  0
    5.0659   -2.4523   -1.8814 C   0  0  0  0  0  0  0  0  0  0  0  0
    5.3227   -3.0723   -0.6900 N   0  0  0  0  0  0  0  0  0  0  0  0
    4.5939   -2.4261    0.1955 C   0  0  0  0  0  0  0  0  0  0  0  0
   -2.2190    0.1629    1.1081 N   0  0  0  0  0  0  0  0  0  0  0  0
   -2.9961   -0.2047    0.0741 C   0  0  0  0  0  0  0  0  0  0  0  0
   -3.3969   -1.5263   -0.0356 C   0  0  0  0  0  0  0  0  0  0  0  0
   -5.2496   -1.3996   -2.8818 H   0  0  0  0  0  0  0  0  0  0  0  0
   -4.5667    0.9845   -2.7407 H   0  0  0  0  0  0  0  0  0  0  0  0
   -3.3253    2.7906   -1.5074 H   0  0  0  0  0  0  0  0  0  0  0  0
   -1.9127    3.4465    0.4058 H   0  0  0  0  0  0  0  0  0  0  0  0
   -0.9214    0.8411    2.7781 H   0  0  0  0  0  0  0  0  0  0  0  0
    0.7060    2.6982    2.9531 H   0  0  0  0  0  0  0  0  0  0  0  0
    0.2027    3.2149    1.3689 H   0  0  0  0  0  0  0  0  0  0  0  0
    1.6740    0.3131    3.2870 H   0  0  0  0  0  0  0  0  0  0  0  0
    3.2118   -1.3008    2.2768 H   0  0  0  0  0  0  0  0  0  0  0  0
    1.0709    2.0251   -0.6138 H   0  0  0  0  0  0  0  0  0  0  0  0
    3.7398   -0.7150   -2.4037 H   0  0  0  0  0  0  0  0  0  0  0  0
    5.5341   -2.7795   -2.8009 H   0  0  0  0  0  0  0  0  0  0  0  0
    4.5653   -2.6695    1.2476 H   0  0  0  0  0  0  0  0  0  0  0  0
   -3.0819   -2.2491    0.7101 H   0  0  0  0  0  0  0  0  0  0  0  0
  1  2  1  0
  2  3  2  0
  3  4  1  0
  4  5  2  0
  5  6  1  0
  6  7  2  0
  7  8  1  0
  8  9  1  0
  9 10  1  0
 10 11  1  0
 11 12  2  0
 12 13  1  0
 13 14  2  0
 14 15  1  0
 15 16  2  0
 14 17  1  0
 17 18  1  0
 18 19  2  0
 19 20  1  0
 20 21  2  0
  8 22  2  0
 22 23  1  0
 23 24  2  0
 24  2  1  0
 23  5  1  0
 16 11  1  0
 21 17  1  0
  3 25  1  0
  4 26  1  0
  6 27  1  0
  7 28  1  0
  9 29  1  0
 10 30  1  0
 10 31  1  0
 12 32  1  0
 13 33  1  0
 16 34  1  0
 18 35  1  0
 19 36  1  0
 21 37  1  0
 24 38  1  0
M  END
>  <Unnamed: 0>  (207) 
1240

>  <ID>  (207) 
TRAIN_1240

>  <Canonical_Smiles>  (207) 
Fc1ccc2ccc(NCc3ccc(nc3)n4ccnc4)nc2c1

>  <Inhibition>  (207) 
98.5

>  <TDC_conf_true_inhibitor>  (207) 
1

>  <TDC_conf_non_inhibitor>  (207) 
0

>  <split>  (207) 
1

$$$$
207
     RDKit          3D

 47 51  0  0  0  0  0  0  0  0999 V2000
   -3.1520   -2.7726    1.4613 C   0  0  0  0  0  0  0  0  0  0  0  0
   -3.3888   -1.3086    1.2768 C   0  0  0  0  0  0  0  0  0  0  0  0
   -4.4125   -0.6686    1.9476 C   0  0  0  0  0  0  0  0  0  0  0  0
   -4.6817    0.6430    1.8367 N   0  0  0  0  0  0  0  0  0  0  0  0
   -3.8791    1.3378    1.0173 C   0  0  0  0  0  0  0  0  0  0  0  0
   -4.1368    2.8035    0.8617 C   0  0  0  0  0  0  0  0  0  0  0  0
   -2.8676    0.8102    0.3042 N   0  0  0  0  0  0  0  0  0  0  0  0
   -2.6312   -0.5094    0.4273 C   0  0  0  0  0  0  0  0  0  0  0  0
   -1.5972   -1.0947   -0.3353 N   0  0  0  0  0  0  0  0  0  0  0  0
   -2.1312   -1.6223   -1.6268 C   0  0  0  0  0  0  0  0  0  0  0  0
   -1.0642   -2.4760   -2.3654 C   0  0  0  0  0  0  0  0  0  0  0  0
    0.2204   -1.7515   -2.3145 C   0  0  0  0  0  0  0  0  0  0  0  0
    1.2542   -2.0638   -3.1188 O   0  0  0  0  0  0  0  0  0  0  0  0
    2.3102   -1.2054   -2.8265 N   0  0  0  0  0  0  0  0  0  0  0  0
    1.8843   -0.4065   -1.8280 C   0  0  0  0  0  0  0  0  0  0  0  0
    0.5507   -0.7172   -1.4820 C   0  0  0  0  0  0  0  0  0  0  0  0
   -0.4406   -0.1651   -0.5219 C   0  0  0  0  0  0  0  0  0  0  0  0
    2.7341    0.6388   -1.2723 C   0  0  0  0  0  0  0  0  0  0  0  0
    3.0168    1.7448   -2.0903 C   0  0  0  0  0  0  0  0  0  0  0  0
    3.7782    2.8024   -1.6066 C   0  0  0  0  0  0  0  0  0  0  0  0
    4.2638    2.7640   -0.3018 C   0  0  0  0  0  0  0  0  0  0  0  0
    4.0094    1.6650    0.5341 C   0  0  0  0  0  0  0  0  0  0  0  0
    4.5189    1.6448    1.8432 C   0  0  0  0  0  0  0  0  0  0  0  0
    4.2922    0.5585    2.6869 C   0  0  0  0  0  0  0  0  0  0  0  0
    3.5579   -0.5272    2.2303 C   0  0  0  0  0  0  0  0  0  0  0  0
    3.0433   -0.5226    0.9321 C   0  0  0  0  0  0  0  0  0  0  0  0
    3.2423    0.5727    0.0551 C   0  0  0  0  0  0  0  0  0  0  0  0
   -2.0818   -2.9947    1.5239 H   0  0  0  0  0  0  0  0  0  0  0  0
   -3.6039   -3.1306    2.3929 H   0  0  0  0  0  0  0  0  0  0  0  0
   -3.5898   -3.3372    0.6328 H   0  0  0  0  0  0  0  0  0  0  0  0
   -5.0693   -1.2094    2.6236 H   0  0  0  0  0  0  0  0  0  0  0  0
   -3.2164    3.3671    1.0413 H   0  0  0  0  0  0  0  0  0  0  0  0
   -4.4881    3.0123   -0.1530 H   0  0  0  0  0  0  0  0  0  0  0  0
   -4.8959    3.1470    1.5709 H   0  0  0  0  0  0  0  0  0  0  0  0
   -2.4363   -0.7826   -2.2676 H   0  0  0  0  0  0  0  0  0  0  0  0
   -3.0170   -2.2484   -1.4661 H   0  0  0  0  0  0  0  0  0  0  0  0
   -0.9526   -3.4417   -1.8595 H   0  0  0  0  0  0  0  0  0  0  0  0
   -1.3794   -2.6629   -3.3966 H   0  0  0  0  0  0  0  0  0  0  0  0
   -0.7674    0.8053   -0.9186 H   0  0  0  0  0  0  0  0  0  0  0  0
    0.0365    0.0049    0.4502 H   0  0  0  0  0  0  0  0  0  0  0  0
    2.6382    1.7821   -3.1103 H   0  0  0  0  0  0  0  0  0  0  0  0
    3.9932    3.6560   -2.2441 H   0  0  0  0  0  0  0  0  0  0  0  0
    4.8563    3.6028    0.0588 H   0  0  0  0  0  0  0  0  0  0  0  0
    5.1058    2.4811    2.2177 H   0  0  0  0  0  0  0  0  0  0  0  0
    4.6967    0.5589    3.6955 H   0  0  0  0  0  0  0  0  0  0  0  0
    3.3879   -1.3831    2.8783 H   0  0  0  0  0  0  0  0  0  0  0  0
    2.4899   -1.4011    0.6055 H   0  0  0  0  0  0  0  0  0  0  0  0
  1  2  1  0
  2  3  2  0
  3  4  1  0
  4  5  2  0
  5  6  1  0
  5  7  1  0
  7  8  2  0
  8  9  1  0
  9 10  1  0
 10 11  1  0
 11 12  1  0
 12 13  1  0
 13 14  1  0
 14 15  2  0
 15 16  1  0
 16 17  1  0
 15 18  1  0
 18 19  2  0
 19 20  1  0
 20 21  2  0
 21 22  1  0
 22 23  2  0
 23 24  1  0
 24 25  2  0
 25 26  1  0
 26 27  2  0
  8  2  1  0
 17  9  1  0
 16 12  2  0
 27 18  1  0
 27 22  1  0
  1 28  1  0
  1 29  1  0
  1 30  1  0
  3 31  1  0
  6 32  1  0
  6 33  1  0
  6 34  1  0
 10 35  1  0
 10 36  1  0
 11 37  1  0
 11 38  1  0
 17 39  1  0
 17 40  1  0
 19 41  1  0
 20 42  1  0
 21 43  1  0
 23 44  1  0
 24 45  1  0
 25 46  1  0
 26 47  1  0
M  END
>  <Unnamed: 0>  (208) 
1248

>  <ID>  (208) 
TRAIN_1248

>  <Canonical_Smiles>  (208) 
Cc1cnc(C)nc1N2CCc3onc(c3C2)c4cccc5ccccc45

>  <Inhibition>  (208) 
91.7

>  <TDC_conf_true_inhibitor>  (208) 
1

>  <TDC_conf_non_inhibitor>  (208) 
0

>  <split>  (208) 
1

$$$$
208
     RDKit          3D

 45 46  0  0  0  0  0  0  0  0999 V2000
    5.3601   -1.2172    0.7076 C   0  0  0  0  0  0  0  0  0  0  0  0
    5.1578    0.1623    0.0793 C   0  0  0  0  0  0  0  0  0  0  0  0
    6.4391    0.9935    0.1758 C   0  0  0  0  0  0  0  0  0  0  0  0
    3.9658    0.8632    0.6760 C   0  0  0  0  0  0  0  0  0  0  0  0
    3.8985    1.5426    1.8782 C   0  0  0  0  0  0  0  0  0  0  0  0
    2.3252    2.1720    2.1187 S   0  0  0  0  0  0  0  0  0  0  0  0
    1.8229    1.4736    0.6274 C   0  0  0  0  0  0  0  0  0  0  0  0
    2.7699    0.8279   -0.0274 N   0  0  0  0  0  0  0  0  0  0  0  0
    0.4294    1.6251    0.1836 C   0  0  0  0  0  0  0  0  0  0  0  0
   -0.4006    2.2870    0.8194 O   0  0  0  0  0  0  0  0  0  0  0  0
    0.0126    1.0123   -1.0045 N   0  0  0  0  0  0  0  0  0  0  0  0
    0.8090    0.1007   -1.7987 C   0  0  0  0  0  0  0  0  0  0  0  0
   -0.1914   -0.3762   -3.2374 S   0  0  0  0  0  0  0  0  0  0  0  0
   -1.6099    0.6433   -2.7603 C   0  0  0  0  0  0  0  0  0  0  0  0
   -1.4192    0.9410   -1.2796 C   0  0  0  0  0  0  0  0  0  0  0  0
   -2.1003   -0.1460   -0.4129 C   0  0  0  0  0  0  0  0  0  0  0  0
   -1.4710   -1.0468    0.1363 O   0  0  0  0  0  0  0  0  0  0  0  0
   -3.4798   -0.0226   -0.3491 N   0  0  0  0  0  0  0  0  0  0  0  0
   -4.3506   -0.8922    0.4604 C   0  0  0  0  0  0  0  0  0  0  0  0
   -5.8083   -0.4537    0.2198 C   0  0  0  0  0  0  0  0  0  0  0  0
   -4.0350   -0.7411    1.9562 C   0  0  0  0  0  0  0  0  0  0  0  0
   -4.2229   -2.3655    0.0372 C   0  0  0  0  0  0  0  0  0  0  0  0
    5.5647   -1.1469    1.7819 H   0  0  0  0  0  0  0  0  0  0  0  0
    4.4663   -1.8386    0.5809 H   0  0  0  0  0  0  0  0  0  0  0  0
    6.2004   -1.7391    0.2372 H   0  0  0  0  0  0  0  0  0  0  0  0
    4.9516    0.0130   -0.9900 H   0  0  0  0  0  0  0  0  0  0  0  0
    6.7527    1.1386    1.2161 H   0  0  0  0  0  0  0  0  0  0  0  0
    7.2593    0.4985   -0.3546 H   0  0  0  0  0  0  0  0  0  0  0  0
    6.2980    1.9841   -0.2707 H   0  0  0  0  0  0  0  0  0  0  0  0
    4.6795    1.7051    2.6069 H   0  0  0  0  0  0  0  0  0  0  0  0
    1.7141    0.5999   -2.1529 H   0  0  0  0  0  0  0  0  0  0  0  0
    1.0626   -0.7854   -1.2087 H   0  0  0  0  0  0  0  0  0  0  0  0
   -2.5475    0.1323   -2.9934 H   0  0  0  0  0  0  0  0  0  0  0  0
   -1.5643    1.5690   -3.3433 H   0  0  0  0  0  0  0  0  0  0  0  0
   -1.8877    1.9005   -1.0286 H   0  0  0  0  0  0  0  0  0  0  0  0
   -3.8542    0.8920   -0.5688 H   0  0  0  0  0  0  0  0  0  0  0  0
   -6.0786   -0.5503   -0.8389 H   0  0  0  0  0  0  0  0  0  0  0  0
   -5.9598    0.5953    0.5011 H   0  0  0  0  0  0  0  0  0  0  0  0
   -6.5104   -1.0625    0.8017 H   0  0  0  0  0  0  0  0  0  0  0  0
   -3.0227   -1.0813    2.1973 H   0  0  0  0  0  0  0  0  0  0  0  0
   -4.1106    0.3059    2.2704 H   0  0  0  0  0  0  0  0  0  0  0  0
   -4.7321   -1.3245    2.5690 H   0  0  0  0  0  0  0  0  0  0  0  0
   -4.3981   -2.4822   -1.0383 H   0  0  0  0  0  0  0  0  0  0  0  0
   -3.2319   -2.7755    0.2525 H   0  0  0  0  0  0  0  0  0  0  0  0
   -4.9528   -2.9896    0.5670 H   0  0  0  0  0  0  0  0  0  0  0  0
  1  2  1  0
  2  3  1  0
  2  4  1  0
  4  5  2  0
  5  6  1  0
  6  7  1  0
  7  8  2  0
  7  9  1  0
  9 10  2  0
  9 11  1  0
 11 12  1  0
 12 13  1  0
 13 14  1  0
 14 15  1  0
 15 16  1  0
 16 17  2  0
 16 18  1  0
 18 19  1  0
 19 20  1  0
 19 21  1  0
 19 22  1  0
  8  4  1  0
 15 11  1  0
  1 23  1  0
  1 24  1  0
  1 25  1  0
  2 26  1  0
  3 27  1  0
  3 28  1  0
  3 29  1  0
  5 30  1  0
 12 31  1  0
 12 32  1  0
 14 33  1  0
 14 34  1  0
 15 35  1  0
 18 36  1  0
 20 37  1  0
 20 38  1  0
 20 39  1  0
 21 40  1  0
 21 41  1  0
 21 42  1  0
 22 43  1  0
 22 44  1  0
 22 45  1  0
M  END
>  <Unnamed: 0>  (209) 
1254

>  <ID>  (209) 
TRAIN_1254

>  <Canonical_Smiles>  (209) 
CC(C)c1csc(n1)C(=O)N2CSCC2C(=O)NC(C)(C)C

>  <Inhibition>  (209) 
41.9

>  <TDC_conf_true_inhibitor>  (209) 
0

>  <TDC_conf_non_inhibitor>  (209) 
1

>  <split>  (209) 
1

$$$$
209
     RDKit          3D

 56 60  0  0  0  0  0  0  0  0999 V2000
    3.8241   -0.7451    2.4043 O   0  0  0  0  0  0  0  0  0  0  0  0
    3.7288   -0.2502    1.2865 C   0  0  0  0  0  0  0  0  0  0  0  0
    2.5552   -0.2169    0.5667 N   0  0  0  0  0  0  0  0  0  0  0  0
    1.3237   -0.7870    1.0787 C   0  0  0  0  0  0  0  0  0  0  0  0
    0.9100   -2.0094    0.2865 C   0  0  0  0  0  0  0  0  0  0  0  0
    1.8003   -3.1009    0.2276 C   0  0  0  0  0  0  0  0  0  0  0  0
    1.4811   -4.2561   -0.4852 C   0  0  0  0  0  0  0  0  0  0  0  0
    0.2655   -4.3422   -1.1523 C   0  0  0  0  0  0  0  0  0  0  0  0
   -0.6363   -3.2790   -1.0915 C   0  0  0  0  0  0  0  0  0  0  0  0
   -0.3386   -2.1064   -0.3707 C   0  0  0  0  0  0  0  0  0  0  0  0
   -1.3442   -1.0363   -0.3228 C   0  0  0  0  0  0  0  0  0  0  0  0
   -2.1506   -0.8642    0.8113 C   0  0  0  0  0  0  0  0  0  0  0  0
   -3.0913    0.1665    0.8697 C   0  0  0  0  0  0  0  0  0  0  0  0
   -3.2541    1.0435   -0.2113 C   0  0  0  0  0  0  0  0  0  0  0  0
   -4.2617    2.1629   -0.1360 C   0  0  0  0  0  0  0  0  0  0  0  0
   -5.6282    1.6972    0.0235 N   0  0  0  0  0  0  0  0  0  0  0  0
   -6.2386    0.7698   -0.8985 C   0  0  0  0  0  0  0  0  0  0  0  0
   -7.6268    0.5799   -0.3203 C   0  0  0  0  0  0  0  0  0  0  0  0
   -7.9517    1.9420    0.2782 C   0  0  0  0  0  0  0  0  0  0  0  0
   -6.5921    2.5009    0.6253 C   0  0  0  0  0  0  0  0  0  0  0  0
   -6.3935    3.5159    1.2720 O   0  0  0  0  0  0  0  0  0  0  0  0
   -2.4556    0.8707   -1.3492 C   0  0  0  0  0  0  0  0  0  0  0  0
   -1.5123   -0.1598   -1.4036 C   0  0  0  0  0  0  0  0  0  0  0  0
    4.9281    0.3264    0.6200 C   0  0  0  0  0  0  0  0  0  0  0  0
    4.8230    1.3826   -0.3012 C   0  0  0  0  0  0  0  0  0  0  0  0
    5.9577    1.9279   -0.9168 C   0  0  0  0  0  0  0  0  0  0  0  0
    7.1889    1.3764   -0.5574 C   0  0  0  0  0  0  0  0  0  0  0  0
    8.4776    1.6611   -0.9379 N   0  0  0  0  0  0  0  0  0  0  0  0
    9.3126    0.8182   -0.2632 C   0  0  0  0  0  0  0  0  0  0  0  0
    8.6473    0.0048    0.5258 N   0  0  0  0  0  0  0  0  0  0  0  0
    7.3256    0.3399    0.3610 C   0  0  0  0  0  0  0  0  0  0  0  0
    6.1835   -0.1984    0.9677 C   0  0  0  0  0  0  0  0  0  0  0  0
    2.5675    0.0346   -0.4123 H   0  0  0  0  0  0  0  0  0  0  0  0
    1.4184   -1.0536    2.1368 H   0  0  0  0  0  0  0  0  0  0  0  0
    0.5864    0.0179    1.0148 H   0  0  0  0  0  0  0  0  0  0  0  0
    2.7566   -3.0497    0.7497 H   0  0  0  0  0  0  0  0  0  0  0  0
    2.1842   -5.0844   -0.5185 H   0  0  0  0  0  0  0  0  0  0  0  0
    0.0147   -5.2364   -1.7135 H   0  0  0  0  0  0  0  0  0  0  0  0
   -1.5906   -3.3691   -1.6085 H   0  0  0  0  0  0  0  0  0  0  0  0
   -2.0437   -1.5334    1.6620 H   0  0  0  0  0  0  0  0  0  0  0  0
   -3.7005    0.2852    1.7648 H   0  0  0  0  0  0  0  0  0  0  0  0
   -4.2341    2.7795   -1.0427 H   0  0  0  0  0  0  0  0  0  0  0  0
   -3.9999    2.8239    0.6988 H   0  0  0  0  0  0  0  0  0  0  0  0
   -5.6828   -0.1694   -0.9461 H   0  0  0  0  0  0  0  0  0  0  0  0
   -6.2782    1.2332   -1.8902 H   0  0  0  0  0  0  0  0  0  0  0  0
   -8.3586    0.2544   -1.0666 H   0  0  0  0  0  0  0  0  0  0  0  0
   -7.5980   -0.1727    0.4781 H   0  0  0  0  0  0  0  0  0  0  0  0
   -8.5803    1.8587    1.1661 H   0  0  0  0  0  0  0  0  0  0  0  0
   -8.4226    2.5968   -0.4596 H   0  0  0  0  0  0  0  0  0  0  0  0
   -2.5569    1.5395   -2.2020 H   0  0  0  0  0  0  0  0  0  0  0  0
   -0.9001   -0.2746   -2.2957 H   0  0  0  0  0  0  0  0  0  0  0  0
    3.8538    1.8215   -0.5292 H   0  0  0  0  0  0  0  0  0  0  0  0
    5.8770    2.7489   -1.6219 H   0  0  0  0  0  0  0  0  0  0  0  0
    8.7602    2.3733   -1.5955 H   0  0  0  0  0  0  0  0  0  0  0  0
   10.3881    0.8435   -0.3850 H   0  0  0  0  0  0  0  0  0  0  0  0
    6.2822   -1.0024    1.6913 H   0  0  0  0  0  0  0  0  0  0  0  0
  1  2  2  0
  2  3  1  0
  3  4  1  0
  4  5  1  0
  5  6  2  0
  6  7  1  0
  7  8  2  0
  8  9  1  0
  9 10  2  0
 10 11  1  0
 11 12  2  0
 12 13  1  0
 13 14  2  0
 14 15  1  0
 15 16  1  0
 16 17  1  0
 17 18  1  0
 18 19  1  0
 19 20  1  0
 20 21  2  0
 14 22  1  0
 22 23  2  0
  2 24  1  0
 24 25  2  0
 25 26  1  0
 26 27  2  0
 27 28  1  0
 28 29  1  0
 29 30  2  0
 30 31  1  0
 31 32  2  0
 10  5  1  0
 23 11  1  0
 20 16  1  0
 32 24  1  0
 31 27  1  0
  3 33  1  0
  4 34  1  0
  4 35  1  0
  6 36  1  0
  7 37  1  0
  8 38  1  0
  9 39  1  0
 12 40  1  0
 13 41  1  0
 15 42  1  0
 15 43  1  0
 17 44  1  0
 17 45  1  0
 18 46  1  0
 18 47  1  0
 19 48  1  0
 19 49  1  0
 22 50  1  0
 23 51  1  0
 25 52  1  0
 26 53  1  0
 28 54  1  0
 29 55  1  0
 32 56  1  0
M  END
>  <Unnamed: 0>  (210) 
1255

>  <ID>  (210) 
TRAIN_1255

>  <Canonical_Smiles>  (210) 
O=C(NCc1ccccc1c2ccc(CN3CCCC3=O)cc2)c4ccc5[nH]cnc5c4

>  <Inhibition>  (210) 
84.9

>  <TDC_conf_true_inhibitor>  (210) 
1

>  <TDC_conf_non_inhibitor>  (210) 
0

>  <split>  (210) 
1

$$$$
210
     RDKit          3D

 31 33  0  0  0  0  0  0  0  0999 V2000
    3.5393    0.5494   -1.4206 O   0  0  0  0  0  0  0  0  0  0  0  0
    2.8955    0.3602   -0.1566 C   0  0  0  0  0  0  0  0  0  0  0  0
    2.0793    1.6149    0.1859 C   0  0  0  0  0  0  0  0  0  0  0  0
    2.5100    2.7396    0.3822 O   0  0  0  0  0  0  0  0  0  0  0  0
    0.7367    1.2734    0.1792 N   0  0  0  0  0  0  0  0  0  0  0  0
    0.5584   -0.0405   -0.1148 C   0  0  0  0  0  0  0  0  0  0  0  0
    1.7554   -0.5995   -0.2905 C   0  0  0  0  0  0  0  0  0  0  0  0
    1.8578   -2.0305   -0.4930 C   0  0  0  0  0  0  0  0  0  0  0  0
    2.9238   -2.5925   -0.6883 O   0  0  0  0  0  0  0  0  0  0  0  0
    0.6658   -2.6933   -0.4199 N   0  0  0  0  0  0  0  0  0  0  0  0
   -0.5940   -2.1381   -0.3230 C   0  0  0  0  0  0  0  0  0  0  0  0
   -1.5639   -2.8882   -0.4219 O   0  0  0  0  0  0  0  0  0  0  0  0
   -0.6362   -0.7339   -0.1562 N   0  0  0  0  0  0  0  0  0  0  0  0
   -1.9209   -0.0869   -0.0851 C   0  0  0  0  0  0  0  0  0  0  0  0
   -2.1521    1.1322   -0.7456 C   0  0  0  0  0  0  0  0  0  0  0  0
   -3.3966    1.7683   -0.6715 C   0  0  0  0  0  0  0  0  0  0  0  0
   -4.4282    1.1892    0.0608 C   0  0  0  0  0  0  0  0  0  0  0  0
   -5.9566    1.9706    0.1534 Cl  0  0  0  0  0  0  0  0  0  0  0  0
   -4.2270   -0.0231    0.7119 C   0  0  0  0  0  0  0  0  0  0  0  0
   -2.9821   -0.6583    0.6349 C   0  0  0  0  0  0  0  0  0  0  0  0
    3.8295    0.1061    1.0260 C   0  0  0  0  0  0  0  0  0  0  0  0
    4.7463    1.0968    1.1449 F   0  0  0  0  0  0  0  0  0  0  0  0
    3.1525    0.0318    2.1967 F   0  0  0  0  0  0  0  0  0  0  0  0
    4.5254   -1.0443    0.8978 F   0  0  0  0  0  0  0  0  0  0  0  0
    4.2127    1.2466   -1.2924 H   0  0  0  0  0  0  0  0  0  0  0  0
    0.0107    1.9356    0.4159 H   0  0  0  0  0  0  0  0  0  0  0  0
    0.6925   -3.6899   -0.5818 H   0  0  0  0  0  0  0  0  0  0  0  0
   -1.3894    1.5826   -1.3768 H   0  0  0  0  0  0  0  0  0  0  0  0
   -3.5575    2.7044   -1.2007 H   0  0  0  0  0  0  0  0  0  0  0  0
   -5.0307   -0.4845    1.2803 H   0  0  0  0  0  0  0  0  0  0  0  0
   -2.8565   -1.5981    1.1689 H   0  0  0  0  0  0  0  0  0  0  0  0
  1  2  1  0
  2  3  1  0
  3  4  2  0
  3  5  1  0
  5  6  1  0
  6  7  2  0
  7  8  1  0
  8  9  2  0
  8 10  1  0
 10 11  1  0
 11 12  2  0
 11 13  1  0
 13 14  1  0
 14 15  2  0
 15 16  1  0
 16 17  2  0
 17 18  1  0
 17 19  1  0
 19 20  2  0
  2 21  1  0
 21 22  1  0
 21 23  1  0
 21 24  1  0
  7  2  1  0
 13  6  1  0
 20 14  1  0
  1 25  1  0
  5 26  1  0
 10 27  1  0
 15 28  1  0
 16 29  1  0
 19 30  1  0
 20 31  1  0
M  END
>  <Unnamed: 0>  (211) 
1270

>  <ID>  (211) 
TRAIN_1270

>  <Canonical_Smiles>  (211) 
OC1(C(=O)NC2=C1C(=O)NC(=O)N2c3ccc(Cl)cc3)C(F)(F)F

>  <Inhibition>  (211) 
38.8

>  <TDC_conf_true_inhibitor>  (211) 
0

>  <TDC_conf_non_inhibitor>  (211) 
1

>  <split>  (211) 
1

$$$$
211
     RDKit          3D

 48 49  0  0  0  0  0  0  0  0999 V2000
    0.3484   -0.6897    1.7703 C   0  0  0  0  0  0  0  0  0  0  0  0
    0.0414    0.5947    1.0018 C   0  0  0  0  0  0  0  0  0  0  0  0
   -0.4842    0.2927   -0.3514 N   0  0  0  0  0  0  0  0  0  0  0  0
   -1.9515    0.2577   -0.3635 C   0  0  0  0  0  0  0  0  0  0  0  0
   -2.4052    0.0943   -1.8328 C   0  0  0  0  0  0  0  0  0  0  0  0
   -3.3044   -1.0863   -1.3993 C   0  0  0  0  0  0  0  0  0  0  0  0
   -4.7469   -0.8445   -0.9371 C   0  0  0  0  0  0  0  0  0  0  0  0
   -4.6987   -1.1012    0.5399 C   0  0  0  0  0  0  0  0  0  0  0  0
   -3.4606   -1.2964    1.0076 C   0  0  0  0  0  0  0  0  0  0  0  0
   -2.4719   -1.1815   -0.0883 C   0  0  0  0  0  0  0  0  0  0  0  0
    1.2772    1.5594    0.9416 C   0  0  0  0  0  0  0  0  0  0  0  0
    0.9105    2.7344    0.1967 O   0  0  0  0  0  0  0  0  0  0  0  0
    2.5518    0.9812    0.3562 C   0  0  0  0  0  0  0  0  0  0  0  0
    3.5186    0.4137    1.2055 C   0  0  0  0  0  0  0  0  0  0  0  0
    4.6968   -0.1344    0.6895 C   0  0  0  0  0  0  0  0  0  0  0  0
    4.9155   -0.1154   -0.6828 C   0  0  0  0  0  0  0  0  0  0  0  0
    6.0535   -0.6326   -1.2293 O   0  0  0  0  0  0  0  0  0  0  0  0
    3.9781    0.4401   -1.5422 C   0  0  0  0  0  0  0  0  0  0  0  0
    2.8016    0.9868   -1.0251 C   0  0  0  0  0  0  0  0  0  0  0  0
    1.6002    0.2113   -0.6622 O   0  0  0  0  0  0  0  0  0  0  0  0
    0.7377   -0.1901    0.2820 C   0  0  0  0  0  0  0  0  0  0  0  0
    1.1053   -0.7812    1.2784 O   0  0  0  0  0  0  0  0  0  0  0  0
   -0.7383    0.1862   -0.0513 C   0  0  0  0  0  0  0  0  0  0  0  0
   -1.1074    0.7679   -1.0524 O   0  0  0  0  0  0  0  0  0  0  0  0
   -1.5987   -0.2025    0.9001 O   0  0  0  0  0  0  0  0  0  0  0  0
    1.0232   -1.3486    1.2147 H   0  0  0  0  0  0  0  0  0  0  0  0
    0.8146   -0.4597    2.7341 H   0  0  0  0  0  0  0  0  0  0  0  0
   -0.5632   -1.2542    1.9845 H   0  0  0  0  0  0  0  0  0  0  0  0
   -0.7253    1.1495    1.5607 H   0  0  0  0  0  0  0  0  0  0  0  0
   -0.1117    1.0080   -0.9825 H   0  0  0  0  0  0  0  0  0  0  0  0
   -2.4623    1.0825    0.1485 H   0  0  0  0  0  0  0  0  0  0  0  0
   -2.9335    0.9544   -2.2578 H   0  0  0  0  0  0  0  0  0  0  0  0
   -1.6271   -0.2140   -2.5437 H   0  0  0  0  0  0  0  0  0  0  0  0
   -3.2225   -1.9675   -2.0482 H   0  0  0  0  0  0  0  0  0  0  0  0
   -5.4323   -1.5455   -1.4231 H   0  0  0  0  0  0  0  0  0  0  0  0
   -5.0791    0.1782   -1.1427 H   0  0  0  0  0  0  0  0  0  0  0  0
   -5.5892   -1.1323    1.1542 H   0  0  0  0  0  0  0  0  0  0  0  0
   -3.2029   -1.5062    2.0359 H   0  0  0  0  0  0  0  0  0  0  0  0
   -1.7277   -1.9867   -0.1022 H   0  0  0  0  0  0  0  0  0  0  0  0
    1.4955    1.9106    1.9590 H   0  0  0  0  0  0  0  0  0  0  0  0
    0.1262    3.1069    0.6349 H   0  0  0  0  0  0  0  0  0  0  0  0
    3.3591    0.3934    2.2813 H   0  0  0  0  0  0  0  0  0  0  0  0
    5.4235   -0.5678    1.3693 H   0  0  0  0  0  0  0  0  0  0  0  0
    6.6230   -0.9522   -0.5103 H   0  0  0  0  0  0  0  0  0  0  0  0
    4.1604    0.4518   -2.6126 H   0  0  0  0  0  0  0  0  0  0  0  0
    2.0813    1.4262   -1.7111 H   0  0  0  0  0  0  0  0  0  0  0  0
    2.4751   -0.0816   -0.3357 H   0  0  0  0  0  0  0  0  0  0  0  0
   -2.4739    0.0900    0.5739 H   0  0  0  0  0  0  0  0  0  0  0  0
  1  2  1  0
  2  3  1  0
  3  4  1  0
  4  5  1  0
  5  6  1  0
  6  7  1  0
  7  8  1  0
  8  9  2  0
  9 10  1  0
  2 11  1  0
 11 12  1  0
 11 13  1  0
 13 14  2  0
 14 15  1  0
 15 16  2  0
 16 17  1  0
 16 18  1  0
 18 19  2  0
 20 21  1  0
 21 22  2  0
 21 23  1  0
 23 24  2  0
 23 25  1  0
 10  4  1  0
 10  6  1  0
 19 13  1  0
  1 26  1  0
  1 27  1  0
  1 28  1  0
  2 29  1  0
  3 30  1  0
  4 31  1  0
  5 32  1  0
  5 33  1  0
  6 34  1  0
  7 35  1  0
  7 36  1  0
  8 37  1  0
  9 38  1  0
 10 39  1  0
 11 40  1  0
 12 41  1  0
 14 42  1  0
 15 43  1  0
 17 44  1  0
 18 45  1  0
 19 46  1  0
 20 47  1  0
 25 48  1  0
M  END
>  <Unnamed: 0>  (212) 
1280

>  <ID>  (212) 
TRAIN_1280

>  <Canonical_Smiles>  (212) 
CC(NC1CC2CC=CC12)C(O)c3ccc(O)cc3.OC(=O)C(=O)O

>  <Inhibition>  (212) 
21.0

>  <TDC_conf_true_inhibitor>  (212) 
0

>  <TDC_conf_non_inhibitor>  (212) 
1

>  <split>  (212) 
1

$$$$
212
     RDKit          3D

 54 55  0  0  0  0  0  0  0  0999 V2000
    5.8158    0.6903   -1.9207 C   0  0  0  0  0  0  0  0  0  0  0  0
    6.0018    0.0508   -0.6185 N   0  0  0  0  0  0  0  0  0  0  0  0
    5.0405   -1.2698   -0.2307 S   0  0  0  0  0  6  0  0  0  0  0  0
    5.8892   -2.1023    0.5969 O   0  0  0  0  0  0  0  0  0  0  0  0
    4.4392   -1.7770   -1.4435 O   0  0  0  0  0  0  0  0  0  0  0  0
    3.7743   -0.5427    0.8316 C   0  0  0  0  0  0  0  0  0  0  0  0
    2.8780   -1.6361    1.4233 C   0  0  0  0  0  0  0  0  0  0  0  0
    1.5492   -1.7518    0.6763 C   0  0  0  0  0  0  0  0  0  0  0  0
    0.7824   -0.5034    0.6523 N   0  0  0  0  0  0  0  0  0  0  0  0
    1.5913    0.7152    0.7337 C   0  0  0  0  0  0  0  0  0  0  0  0
    2.9640    0.5289    0.0967 C   0  0  0  0  0  0  0  0  0  0  0  0
   -0.4046   -0.4968    1.5485 C   0  0  0  0  0  0  0  0  0  0  0  0
   -0.0768   -0.5986    3.0441 C   0  0  0  0  0  0  0  0  0  0  0  0
   -1.2636    0.7740    1.2779 C   0  0  0  0  0  0  0  0  0  0  0  0
   -1.1649    1.7633    2.0125 O   0  0  0  0  0  0  0  0  0  0  0  0
   -2.0941    0.7784    0.1582 N   0  0  0  0  0  0  0  0  0  0  0  0
   -2.8034    2.0019   -0.1970 C   0  0  0  0  0  0  0  0  0  0  0  0
   -4.3215    1.7683   -0.2294 C   0  0  0  0  0  0  0  0  0  0  0  0
   -4.8998    1.7825    1.1899 C   0  0  0  0  0  0  0  0  0  0  0  0
   -4.7021    0.4658   -0.9665 C   0  0  0  0  0  0  0  0  0  0  0  0
   -3.5007   -0.1840   -1.6803 C   0  0  0  0  0  0  0  0  0  0  0  0
   -3.9057   -1.5096   -2.3276 C   0  0  0  0  0  0  0  0  0  0  0  0
   -2.3493   -0.3946   -0.6785 C   0  0  0  0  0  0  0  0  0  0  0  0
    6.1650    0.0346   -2.7218 H   0  0  0  0  0  0  0  0  0  0  0  0
    4.7758    0.9642   -2.0829 H   0  0  0  0  0  0  0  0  0  0  0  0
    6.4114    1.6115   -1.9449 H   0  0  0  0  0  0  0  0  0  0  0  0
    6.9716   -0.1313   -0.3532 H   0  0  0  0  0  0  0  0  0  0  0  0
    4.3322   -0.0868    1.6610 H   0  0  0  0  0  0  0  0  0  0  0  0
    2.6720   -1.3920    2.4727 H   0  0  0  0  0  0  0  0  0  0  0  0
    3.3809   -2.6093    1.4335 H   0  0  0  0  0  0  0  0  0  0  0  0
    1.7514   -2.0405   -0.3669 H   0  0  0  0  0  0  0  0  0  0  0  0
    0.9577   -2.5787    1.0954 H   0  0  0  0  0  0  0  0  0  0  0  0
    1.7354    1.0413    1.7674 H   0  0  0  0  0  0  0  0  0  0  0  0
    1.0770    1.5265    0.2086 H   0  0  0  0  0  0  0  0  0  0  0  0
    2.8291    0.2717   -0.9611 H   0  0  0  0  0  0  0  0  0  0  0  0
    3.5101    1.4775    0.1150 H   0  0  0  0  0  0  0  0  0  0  0  0
   -1.0186   -1.3697    1.3156 H   0  0  0  0  0  0  0  0  0  0  0  0
    0.5695    0.2136    3.3916 H   0  0  0  0  0  0  0  0  0  0  0  0
    0.4105   -1.5487    3.2799 H   0  0  0  0  0  0  0  0  0  0  0  0
   -0.9988   -0.5468    3.6394 H   0  0  0  0  0  0  0  0  0  0  0  0
   -2.4514    2.3042   -1.1897 H   0  0  0  0  0  0  0  0  0  0  0  0
   -2.5508    2.8273    0.4787 H   0  0  0  0  0  0  0  0  0  0  0  0
   -4.7740    2.6118   -0.7661 H   0  0  0  0  0  0  0  0  0  0  0  0
   -4.6695    2.7288    1.6934 H   0  0  0  0  0  0  0  0  0  0  0  0
   -5.9953    1.6752    1.1646 H   0  0  0  0  0  0  0  0  0  0  0  0
   -4.4892    0.9689    1.8056 H   0  0  0  0  0  0  0  0  0  0  0  0
   -5.1417   -0.2586   -0.2636 H   0  0  0  0  0  0  0  0  0  0  0  0
   -5.4877    0.6883   -1.7001 H   0  0  0  0  0  0  0  0  0  0  0  0
   -3.1645    0.4879   -2.4810 H   0  0  0  0  0  0  0  0  0  0  0  0
   -3.0626   -1.9471   -2.8794 H   0  0  0  0  0  0  0  0  0  0  0  0
   -4.7304   -1.3626   -3.0351 H   0  0  0  0  0  0  0  0  0  0  0  0
   -4.2333   -2.2345   -1.5739 H   0  0  0  0  0  0  0  0  0  0  0  0
   -1.4223   -0.6443   -1.2108 H   0  0  0  0  0  0  0  0  0  0  0  0
   -2.5990   -1.2349   -0.0194 H   0  0  0  0  0  0  0  0  0  0  0  0
  1  2  1  0
  2  3  1  0
  3  4  2  0
  3  5  2  0
  3  6  1  0
  6  7  1  0
  7  8  1  0
  8  9  1  0
  9 10  1  0
 10 11  1  0
  9 12  1  0
 12 13  1  0
 12 14  1  0
 14 15  2  0
 14 16  1  0
 16 17  1  0
 17 18  1  0
 18 19  1  0
 18 20  1  0
 20 21  1  0
 21 22  1  0
 21 23  1  0
 11  6  1  0
 23 16  1  0
  1 24  1  0
  1 25  1  0
  1 26  1  0
  2 27  1  0
  6 28  1  0
  7 29  1  0
  7 30  1  0
  8 31  1  0
  8 32  1  0
 10 33  1  0
 10 34  1  0
 11 35  1  0
 11 36  1  0
 12 37  1  0
 13 38  1  0
 13 39  1  0
 13 40  1  0
 17 41  1  0
 17 42  1  0
 18 43  1  0
 19 44  1  0
 19 45  1  0
 19 46  1  0
 20 47  1  0
 20 48  1  0
 21 49  1  0
 22 50  1  0
 22 51  1  0
 22 52  1  0
 23 53  1  0
 23 54  1  0
M  END
>  <Unnamed: 0>  (213) 
1284

>  <ID>  (213) 
TRAIN_1284

>  <Canonical_Smiles>  (213) 
CNS(=O)(=O)C1CCN(CC1)C(C)C(=O)N2CC(C)CC(C)C2

>  <Inhibition>  (213) 
5.86

>  <TDC_conf_true_inhibitor>  (213) 
0

>  <TDC_conf_non_inhibitor>  (213) 
1

>  <split>  (213) 
1

$$$$
213
     RDKit          3D

 48 50  0  0  0  0  0  0  0  0999 V2000
   -1.1580    2.3986   -0.5643 C   0  0  0  0  0  0  0  0  0  0  0  0
   -1.6137    1.0601   -1.1246 C   0  0  0  0  0  0  0  0  0  0  0  0
   -1.6698   -0.1293   -0.1326 C   0  0  0  0  0  0  0  0  0  0  0  0
   -2.4107   -1.3317   -0.7918 C   0  0  0  0  0  0  0  0  0  0  0  0
   -1.9449   -1.6811   -2.1968 C   0  0  0  0  0  0  0  0  0  0  0  0
   -2.3535    0.1876    1.2780 C   0  0  0  0  0  0  0  0  0  0  0  0
   -1.2919   -0.7474    1.9158 C   0  0  0  0  0  0  0  0  0  0  0  0
   -0.3695   -0.3556    0.7449 C   0  0  0  0  0  0  0  0  0  0  0  0
    0.6372   -1.3158    0.3394 N   0  0  0  0  0  0  0  0  0  0  0  0
    0.3878   -2.7563    0.3751 C   0  0  0  0  0  0  0  0  0  0  0  0
    1.6082   -0.9856   -0.6540 C   0  0  0  0  0  0  0  0  0  0  0  0
    1.6027   -1.6916   -1.7970 N   0  0  0  0  0  0  0  0  0  0  0  0
    2.4493   -1.3030   -2.7504 C   0  0  0  0  0  0  0  0  0  0  0  0
    3.3144   -0.2953   -2.6697 N   0  0  0  0  0  0  0  0  0  0  0  0
    3.3729    0.3631   -1.5236 C   0  0  0  0  0  0  0  0  0  0  0  0
    4.2820    1.3386   -1.4495 N   0  0  0  0  0  0  0  0  0  0  0  0
    4.4352    2.0251   -0.3084 C   0  0  0  0  0  0  0  0  0  0  0  0
    5.4205    3.0087   -0.2994 N   0  0  0  0  0  0  0  0  0  0  0  0
    3.7028    1.7581    0.8284 C   0  0  0  0  0  0  0  0  0  0  0  0
    2.7488    0.7547    0.7635 C   0  0  0  0  0  0  0  0  0  0  0  0
    2.5425    0.0496   -0.4440 C   0  0  0  0  0  0  0  0  0  0  0  0
   -3.7366   -0.1980    1.4363 O   0  0  0  0  0  0  0  0  0  0  0  0
   -4.2961    0.0095    2.7250 C   0  0  0  0  0  0  0  0  0  0  0  0
   -0.1466    2.3541   -0.1539 H   0  0  0  0  0  0  0  0  0  0  0  0
   -1.8337    2.7722    0.2088 H   0  0  0  0  0  0  0  0  0  0  0  0
   -1.1461    3.1449   -1.3664 H   0  0  0  0  0  0  0  0  0  0  0  0
   -0.9354    0.8073   -1.9484 H   0  0  0  0  0  0  0  0  0  0  0  0
   -2.6085    1.2084   -1.5638 H   0  0  0  0  0  0  0  0  0  0  0  0
   -3.4797   -1.0945   -0.8711 H   0  0  0  0  0  0  0  0  0  0  0  0
   -2.3485   -2.2227   -0.1588 H   0  0  0  0  0  0  0  0  0  0  0  0
   -2.2300   -0.9065   -2.9157 H   0  0  0  0  0  0  0  0  0  0  0  0
   -0.8666   -1.8096   -2.2576 H   0  0  0  0  0  0  0  0  0  0  0  0
   -2.4168   -2.6132   -2.5247 H   0  0  0  0  0  0  0  0  0  0  0  0
   -2.2183    1.2224    1.6153 H   0  0  0  0  0  0  0  0  0  0  0  0
   -0.9372   -0.4373    2.9036 H   0  0  0  0  0  0  0  0  0  0  0  0
   -1.6254   -1.7865    1.9848 H   0  0  0  0  0  0  0  0  0  0  0  0
    0.1191    0.5910    0.9990 H   0  0  0  0  0  0  0  0  0  0  0  0
   -0.2414   -3.0973   -0.4500 H   0  0  0  0  0  0  0  0  0  0  0  0
    1.3303   -3.3184    0.3371 H   0  0  0  0  0  0  0  0  0  0  0  0
   -0.0836   -3.0555    1.3148 H   0  0  0  0  0  0  0  0  0  0  0  0
    2.4278   -1.8574   -3.6824 H   0  0  0  0  0  0  0  0  0  0  0  0
    5.8036    3.0539   -1.2418 H   0  0  0  0  0  0  0  0  0  0  0  0
    5.0586    3.9056    0.0017 H   0  0  0  0  0  0  0  0  0  0  0  0
    3.8818    2.2994    1.7502 H   0  0  0  0  0  0  0  0  0  0  0  0
    2.1909    0.4984    1.6592 H   0  0  0  0  0  0  0  0  0  0  0  0
   -3.7586   -0.5826    3.4708 H   0  0  0  0  0  0  0  0  0  0  0  0
   -5.3413   -0.3096    2.7058 H   0  0  0  0  0  0  0  0  0  0  0  0
   -4.2540    1.0705    2.9874 H   0  0  0  0  0  0  0  0  0  0  0  0
  1  2  1  0
  2  3  1  0
  3  4  1  0
  4  5  1  0
  3  6  1  0
  6  7  1  0
  7  8  1  0
  8  9  1  0
  9 10  1  0
  9 11  1  0
 11 12  2  0
 12 13  1  0
 13 14  2  0
 14 15  1  0
 15 16  2  0
 16 17  1  0
 17 18  1  0
 17 19  2  0
 19 20  1  0
 20 21  2  0
  6 22  1  0
 22 23  1  0
  8  3  1  0
 21 11  1  0
 21 15  1  0
  1 24  1  0
  1 25  1  0
  1 26  1  0
  2 27  1  0
  2 28  1  0
  4 29  1  0
  4 30  1  0
  5 31  1  0
  5 32  1  0
  5 33  1  0
  6 34  1  0
  7 35  1  0
  7 36  1  0
  8 37  1  0
 10 38  1  0
 10 39  1  0
 10 40  1  0
 13 41  1  0
 18 42  1  0
 18 43  1  0
 19 44  1  0
 20 45  1  0
 23 46  1  0
 23 47  1  0
 23 48  1  0
M  END
>  <Unnamed: 0>  (214) 
1288

>  <ID>  (214) 
TRAIN_1288

>  <Canonical_Smiles>  (214) 
CCC1(CC)C(CC1N(C)c2ncnc3nc(N)ccc23)OC

>  <Inhibition>  (214) 
38.5

>  <TDC_conf_true_inhibitor>  (214) 
1

>  <TDC_conf_non_inhibitor>  (214) 
0

>  <split>  (214) 
1

$$$$
214
     RDKit          3D

 38 40  0  0  0  0  0  0  0  0999 V2000
    1.3434   -3.1138   -2.9146 O   0  0  0  0  0  0  0  0  0  0  0  0
    1.2240   -2.2231   -2.0940 C   0  0  0  0  0  0  0  0  0  0  0  0
    2.2071   -1.7427   -1.2932 O   0  0  0  0  0  0  0  0  0  0  0  0
    1.6868   -0.6903   -0.4584 C   0  0  0  0  0  0  0  0  0  0  0  0
    2.4524    0.6043   -0.7990 C   0  0  0  0  0  0  0  0  0  0  0  0
    3.7771    0.6715   -0.0433 C   0  0  0  0  0  0  0  0  0  0  0  0
    3.5685    0.6901    1.4722 C   0  0  0  0  0  0  0  0  0  0  0  0
    2.2712    0.0167    1.9224 C   0  0  0  0  0  0  0  0  0  0  0  0
    1.8839   -1.1396    1.0065 C   0  0  0  0  0  0  0  0  0  0  0  0
    0.2309   -0.6113   -0.8665 C   0  0  0  0  0  0  0  0  0  0  0  0
   -0.0161   -1.5084   -1.8200 C   0  0  0  0  0  0  0  0  0  0  0  0
   -0.6438    0.2909   -0.2917 N   0  0  0  0  0  0  0  0  0  0  0  0
   -2.0931    0.2953   -0.4411 C   0  0  0  0  0  0  0  0  0  0  0  0
   -2.6615    1.6610   -0.0400 C   0  0  0  0  0  0  0  0  0  0  0  0
   -4.1728    1.4865   -0.0251 C   0  0  0  0  0  0  0  0  0  0  0  0
   -4.4426   -0.1629    0.6044 S   0  0  0  0  0  6  0  0  0  0  0  0
   -4.7938   -0.0738    2.0060 O   0  0  0  0  0  0  0  0  0  0  0  0
   -5.2464   -0.8929   -0.3530 O   0  0  0  0  0  0  0  0  0  0  0  0
   -2.7571   -0.7230    0.4772 C   0  0  0  0  0  0  0  0  0  0  0  0
    1.8616    1.4926   -0.5421 H   0  0  0  0  0  0  0  0  0  0  0  0
    2.6581    0.6538   -1.8757 H   0  0  0  0  0  0  0  0  0  0  0  0
    4.3935   -0.1948   -0.3147 H   0  0  0  0  0  0  0  0  0  0  0  0
    4.3416    1.5605   -0.3466 H   0  0  0  0  0  0  0  0  0  0  0  0
    4.4261    0.2012    1.9504 H   0  0  0  0  0  0  0  0  0  0  0  0
    3.5689    1.7256    1.8336 H   0  0  0  0  0  0  0  0  0  0  0  0
    1.4642    0.7586    1.9396 H   0  0  0  0  0  0  0  0  0  0  0  0
    2.3829   -0.3396    2.9529 H   0  0  0  0  0  0  0  0  0  0  0  0
    0.9760   -1.6193    1.3937 H   0  0  0  0  0  0  0  0  0  0  0  0
    2.6676   -1.9074    1.0620 H   0  0  0  0  0  0  0  0  0  0  0  0
   -0.9309   -1.7211   -2.3410 H   0  0  0  0  0  0  0  0  0  0  0  0
   -0.2816    0.7670    0.5345 H   0  0  0  0  0  0  0  0  0  0  0  0
   -2.3695    0.0996   -1.4855 H   0  0  0  0  0  0  0  0  0  0  0  0
   -2.3562    2.4537   -0.7309 H   0  0  0  0  0  0  0  0  0  0  0  0
   -2.3083    1.9448    0.9599 H   0  0  0  0  0  0  0  0  0  0  0  0
   -4.5845    1.5310   -1.0376 H   0  0  0  0  0  0  0  0  0  0  0  0
   -4.6731    2.2155    0.6154 H   0  0  0  0  0  0  0  0  0  0  0  0
   -2.3197   -0.7194    1.4806 H   0  0  0  0  0  0  0  0  0  0  0  0
   -2.7348   -1.7367    0.0705 H   0  0  0  0  0  0  0  0  0  0  0  0
  1  2  2  0
  2  3  1  0
  3  4  1  0
  4  5  1  0
  5  6  1  0
  6  7  1  0
  7  8  1  0
  8  9  1  0
  4 10  1  0
 10 11  2  0
 10 12  1  0
 12 13  1  0
 13 14  1  0
 14 15  1  0
 15 16  1  0
 16 17  2  0
 16 18  2  0
 16 19  1  0
 11  2  1  0
  9  4  1  0
 19 13  1  0
  5 20  1  0
  5 21  1  0
  6 22  1  0
  6 23  1  0
  7 24  1  0
  7 25  1  0
  8 26  1  0
  8 27  1  0
  9 28  1  0
  9 29  1  0
 11 30  1  0
 12 31  1  0
 13 32  1  0
 14 33  1  0
 14 34  1  0
 15 35  1  0
 15 36  1  0
 19 37  1  0
 19 38  1  0
M  END
>  <Unnamed: 0>  (215) 
1296

>  <ID>  (215) 
TRAIN_1296

>  <Canonical_Smiles>  (215) 
O=C1OC2(CCCCC2)C(=C1)NC3CCS(=O)(=O)C3

>  <Inhibition>  (215) 
0.77

>  <TDC_conf_true_inhibitor>  (215) 
0

>  <TDC_conf_non_inhibitor>  (215) 
1

>  <split>  (215) 
1

$$$$
215
     RDKit          3D

 42 44  0  0  0  0  0  0  0  0999 V2000
    0.4447    2.3563   -1.4132 C   0  0  0  0  0  0  0  0  0  0  0  0
   -0.2278    1.2972   -0.5296 C   0  0  0  0  0  0  0  0  0  0  0  0
   -1.6972    1.2164   -0.9389 C   0  0  0  0  0  0  0  0  0  0  0  0
   -2.4912    0.2977    0.0019 C   0  0  0  0  0  0  0  0  0  0  0  0
   -3.8559    0.0366   -0.6779 C   0  0  0  0  0  0  0  0  0  0  0  0
   -2.7463    1.0035    1.3514 C   0  0  0  0  0  0  0  0  0  0  0  0
   -1.7130   -0.9965    0.2493 C   0  0  0  0  0  0  0  0  0  0  0  0
   -2.3863   -2.0833    0.8583 C   0  0  0  0  0  0  0  0  0  0  0  0
   -1.7480   -3.2928    1.1028 C   0  0  0  0  0  0  0  0  0  0  0  0
   -0.4214   -3.4380    0.7445 C   0  0  0  0  0  0  0  0  0  0  0  0
    0.2643   -2.3687    0.1589 C   0  0  0  0  0  0  0  0  0  0  0  0
   -0.3384   -1.1151   -0.0874 C   0  0  0  0  0  0  0  0  0  0  0  0
    0.3802   -0.0454   -0.6660 N   0  0  0  0  0  0  0  0  0  0  0  0
    1.8477   -0.1267   -0.7650 C   0  0  0  0  0  0  0  0  0  0  0  0
    2.6151    0.1624    0.4745 C   0  0  0  0  0  0  0  0  0  0  0  0
    2.2736    0.1600    1.8101 C   0  0  0  0  0  0  0  0  0  0  0  0
    3.3548    0.5073    2.5669 N   0  0  0  0  0  0  0  0  0  0  0  0
    4.3738    0.7241    1.7479 N   0  0  0  0  0  0  0  0  0  0  0  0
    3.9405    0.5061    0.4952 N   0  0  0  0  0  0  0  0  0  0  0  0
    4.8501    0.6620   -0.6099 C   0  0  0  0  0  0  0  0  0  0  0  0
   -0.1081    3.3018   -1.3782 H   0  0  0  0  0  0  0  0  0  0  0  0
    1.4608    2.5780   -1.0712 H   0  0  0  0  0  0  0  0  0  0  0  0
    0.4968    2.0332   -2.4588 H   0  0  0  0  0  0  0  0  0  0  0  0
   -0.1354    1.6339    0.5098 H   0  0  0  0  0  0  0  0  0  0  0  0
   -1.7574    0.8380   -1.9704 H   0  0  0  0  0  0  0  0  0  0  0  0
   -2.1494    2.2170   -0.9511 H   0  0  0  0  0  0  0  0  0  0  0  0
   -4.3440    0.9800   -0.9504 H   0  0  0  0  0  0  0  0  0  0  0  0
   -3.7370   -0.5550   -1.5934 H   0  0  0  0  0  0  0  0  0  0  0  0
   -4.5524   -0.5015   -0.0263 H   0  0  0  0  0  0  0  0  0  0  0  0
   -1.8200    1.1689    1.9122 H   0  0  0  0  0  0  0  0  0  0  0  0
   -3.2272    1.9771    1.2027 H   0  0  0  0  0  0  0  0  0  0  0  0
   -3.4054    0.4108    1.9965 H   0  0  0  0  0  0  0  0  0  0  0  0
   -3.4282   -1.9923    1.1553 H   0  0  0  0  0  0  0  0  0  0  0  0
   -2.2863   -4.1136    1.5676 H   0  0  0  0  0  0  0  0  0  0  0  0
    0.0930   -4.3784    0.9228 H   0  0  0  0  0  0  0  0  0  0  0  0
    1.3035   -2.5598   -0.0838 H   0  0  0  0  0  0  0  0  0  0  0  0
    2.1808    0.5609   -1.5513 H   0  0  0  0  0  0  0  0  0  0  0  0
    2.1596   -1.0957   -1.1722 H   0  0  0  0  0  0  0  0  0  0  0  0
    1.3166   -0.0673    2.2587 H   0  0  0  0  0  0  0  0  0  0  0  0
    4.6839   -0.1478   -1.3243 H   0  0  0  0  0  0  0  0  0  0  0  0
    5.8793    0.6177   -0.2441 H   0  0  0  0  0  0  0  0  0  0  0  0
    4.6573    1.6312   -1.0762 H   0  0  0  0  0  0  0  0  0  0  0  0
  1  2  1  0
  2  3  1  0
  3  4  1  0
  4  5  1  0
  4  6  1  0
  4  7  1  0
  7  8  2  0
  8  9  1  0
  9 10  2  0
 10 11  1  0
 11 12  2  0
 12 13  1  0
 13 14  1  0
 14 15  1  0
 15 16  2  0
 16 17  1  0
 17 18  2  0
 18 19  1  0
 19 20  1  0
 13  2  1  0
 12  7  1  0
 19 15  1  0
  1 21  1  0
  1 22  1  0
  1 23  1  0
  2 24  1  0
  3 25  1  0
  3 26  1  0
  5 27  1  0
  5 28  1  0
  5 29  1  0
  6 30  1  0
  6 31  1  0
  6 32  1  0
  8 33  1  0
  9 34  1  0
 10 35  1  0
 11 36  1  0
 14 37  1  0
 14 38  1  0
 16 39  1  0
 20 40  1  0
 20 41  1  0
 20 42  1  0
M  END
>  <Unnamed: 0>  (216) 
1298

>  <ID>  (216) 
TRAIN_1298

>  <Canonical_Smiles>  (216) 
CC1CC(C)(C)c2ccccc2N1Cc3cnnn3C

>  <Inhibition>  (216) 
48.7

>  <TDC_conf_true_inhibitor>  (216) 
1

>  <TDC_conf_non_inhibitor>  (216) 
0

>  <split>  (216) 
1

$$$$
216
     RDKit          3D

 45 46  0  0  0  0  0  0  0  0999 V2000
   -3.0418    2.2252   -0.0786 C   0  0  0  0  0  0  0  0  0  0  0  0
   -2.5860    1.0224    0.7669 C   0  0  0  0  0  0  0  0  0  0  0  0
   -1.1168    0.8738    0.8867 N   0  0  0  0  0  0  0  0  0  0  0  0
   -0.5383    1.9005    1.7558 C   0  0  0  0  0  0  0  0  0  0  0  0
   -0.4300    0.8081   -0.4124 C   0  0  0  0  0  0  0  0  0  0  0  0
    0.9353    0.2106   -0.2551 C   0  0  0  0  0  0  0  0  0  0  0  0
    1.2426   -1.1566   -0.0054 C   0  0  0  0  0  0  0  0  0  0  0  0
    0.2978   -2.2862    0.1832 C   0  0  0  0  0  0  0  0  0  0  0  0
    2.5611   -1.3681    0.0595 N   0  0  0  0  0  0  0  0  0  0  0  0
    3.1037   -0.1508   -0.1377 N   0  0  0  0  0  0  0  0  0  0  0  0
    4.5553   -0.0379   -0.1220 C   0  0  0  0  0  0  0  0  0  0  0  0
    5.2059   -0.9792   -1.1317 C   0  0  0  0  0  0  0  0  0  0  0  0
    5.1374   -2.3372   -0.6995 O   0  0  0  0  0  0  0  0  0  0  0  0
    2.1725    0.8367   -0.3374 C   0  0  0  0  0  0  0  0  0  0  0  0
    2.5306    2.2581   -0.5751 C   0  0  0  0  0  0  0  0  0  0  0  0
   -3.2274   -0.3081    0.3741 C   0  0  0  0  0  0  0  0  0  0  0  0
   -3.1954   -1.3691    1.2917 C   0  0  0  0  0  0  0  0  0  0  0  0
   -3.7634   -2.5844    0.9439 C   0  0  0  0  0  0  0  0  0  0  0  0
   -4.3586   -2.8202   -0.2427 N   0  0  0  0  0  0  0  0  0  0  0  0
   -4.3790   -1.7947   -1.1186 C   0  0  0  0  0  0  0  0  0  0  0  0
   -3.8363   -0.5425   -0.8632 C   0  0  0  0  0  0  0  0  0  0  0  0
   -2.6517    3.1653    0.3248 H   0  0  0  0  0  0  0  0  0  0  0  0
   -4.1352    2.3049   -0.0757 H   0  0  0  0  0  0  0  0  0  0  0  0
   -2.7209    2.1519   -1.1229 H   0  0  0  0  0  0  0  0  0  0  0  0
   -2.9846    1.2164    1.7743 H   0  0  0  0  0  0  0  0  0  0  0  0
   -0.5710    2.8985    1.3060 H   0  0  0  0  0  0  0  0  0  0  0  0
    0.5039    1.6721    2.0018 H   0  0  0  0  0  0  0  0  0  0  0  0
   -1.0654    1.9395    2.7160 H   0  0  0  0  0  0  0  0  0  0  0  0
   -0.9765    0.1680   -1.1153 H   0  0  0  0  0  0  0  0  0  0  0  0
   -0.3701    1.7962   -0.8836 H   0  0  0  0  0  0  0  0  0  0  0  0
   -0.5018   -2.2541   -0.5631 H   0  0  0  0  0  0  0  0  0  0  0  0
   -0.1511   -2.2404    1.1800 H   0  0  0  0  0  0  0  0  0  0  0  0
    0.8053   -3.2516    0.0840 H   0  0  0  0  0  0  0  0  0  0  0  0
    4.8250    0.9961   -0.3511 H   0  0  0  0  0  0  0  0  0  0  0  0
    4.8709   -0.2703    0.9011 H   0  0  0  0  0  0  0  0  0  0  0  0
    6.2658   -0.7303   -1.2408 H   0  0  0  0  0  0  0  0  0  0  0  0
    4.7343   -0.9058   -2.1174 H   0  0  0  0  0  0  0  0  0  0  0  0
    4.1992   -2.4860   -0.4389 H   0  0  0  0  0  0  0  0  0  0  0  0
    3.1349    2.6475    0.2505 H   0  0  0  0  0  0  0  0  0  0  0  0
    3.0986    2.3611   -1.5053 H   0  0  0  0  0  0  0  0  0  0  0  0
    1.6419    2.8904   -0.6564 H   0  0  0  0  0  0  0  0  0  0  0  0
   -2.7192   -1.2521    2.2607 H   0  0  0  0  0  0  0  0  0  0  0  0
   -3.7495   -3.4247    1.6319 H   0  0  0  0  0  0  0  0  0  0  0  0
   -4.8586   -2.0108   -2.0692 H   0  0  0  0  0  0  0  0  0  0  0  0
   -3.8933    0.2178   -1.6331 H   0  0  0  0  0  0  0  0  0  0  0  0
  1  2  1  0
  2  3  1  0
  3  4  1  0
  3  5  1  0
  5  6  1  0
  6  7  1  0
  7  8  1  0
  7  9  2  0
  9 10  1  0
 10 11  1  0
 11 12  1  0
 12 13  1  0
 10 14  1  0
 14 15  1  0
  2 16  1  0
 16 17  2  0
 17 18  1  0
 18 19  2  0
 19 20  1  0
 20 21  2  0
 14  6  2  0
 21 16  1  0
  1 22  1  0
  1 23  1  0
  1 24  1  0
  2 25  1  0
  4 26  1  0
  4 27  1  0
  4 28  1  0
  5 29  1  0
  5 30  1  0
  8 31  1  0
  8 32  1  0
  8 33  1  0
 11 34  1  0
 11 35  1  0
 12 36  1  0
 12 37  1  0
 13 38  1  0
 15 39  1  0
 15 40  1  0
 15 41  1  0
 17 42  1  0
 18 43  1  0
 20 44  1  0
 21 45  1  0
M  END
>  <Unnamed: 0>  (217) 
1301

>  <ID>  (217) 
TRAIN_1301

>  <Canonical_Smiles>  (217) 
CC(N(C)Cc1c(C)nn(CCO)c1C)c2ccncc2

>  <Inhibition>  (217) 
44.5

>  <TDC_conf_true_inhibitor>  (217) 
1

>  <TDC_conf_non_inhibitor>  (217) 
0

>  <split>  (217) 
1

$$$$
217
     RDKit          3D

 53 54  0  0  0  0  0  0  0  0999 V2000
    6.5139    1.9939   -1.1097 C   0  0  0  0  0  0  0  0  0  0  0  0
    5.9661    0.6400   -0.6879 C   0  0  0  0  0  0  0  0  0  0  0  0
    4.8481    0.7849    0.3407 C   0  0  0  0  0  0  0  0  0  0  0  0
    4.2978   -0.5714    0.7658 C   0  0  0  0  0  0  0  0  0  0  0  0
    3.2841   -0.3878    1.7520 O   0  0  0  0  0  0  0  0  0  0  0  0
    1.9210   -0.3219    1.2691 C   0  0  0  0  0  0  0  0  0  0  0  0
    0.8803    0.1271    2.3182 C   0  0  0  0  0  0  0  0  0  0  0  0
   -0.0471   -1.0210    1.8865 C   0  0  0  0  0  0  0  0  0  0  0  0
   -1.2638   -0.7068    1.0660 N   0  0  0  0  0  0  0  0  0  0  0  0
   -2.4181   -1.5737    1.2842 C   0  0  0  0  0  0  0  0  0  0  0  0
   -1.3479    0.3924    0.2015 C   0  0  0  0  0  0  0  0  0  0  0  0
   -0.4438    1.1773   -0.0582 O   0  0  0  0  0  0  0  0  0  0  0  0
   -2.6763    0.6401   -0.4736 C   0  0  0  0  0  0  0  0  0  0  0  0
   -3.6306    1.1746    0.2440 N   0  0  0  0  0  0  0  0  0  0  0  0
   -4.8389    1.4415   -0.3722 C   0  0  0  0  0  0  0  0  0  0  0  0
   -5.0854    1.1821   -1.6770 C   0  0  0  0  0  0  0  0  0  0  0  0
   -6.3597    1.4894   -2.4117 C   0  0  0  0  0  0  0  0  0  0  0  0
   -4.0999    0.5986   -2.4401 N   0  0  0  0  0  0  0  0  0  0  0  0
   -2.8709    0.2657   -1.9290 C   0  0  0  0  0  0  0  0  0  0  0  0
   -2.0060   -0.3170   -2.5625 O   0  0  0  0  0  0  0  0  0  0  0  0
   -5.8603    2.0382    0.5635 C   0  0  0  0  0  0  0  0  0  0  0  0
    1.1551   -1.6826    1.1371 C   0  0  0  0  0  0  0  0  0  0  0  0
    0.9394   -2.1230   -0.3107 C   0  0  0  0  0  0  0  0  0  0  0  0
    1.7526   -2.8365    1.9554 C   0  0  0  0  0  0  0  0  0  0  0  0
    7.3148    1.8665   -1.8447 H   0  0  0  0  0  0  0  0  0  0  0  0
    6.9235    2.5362   -0.2514 H   0  0  0  0  0  0  0  0  0  0  0  0
    5.7309    2.6097   -1.5636 H   0  0  0  0  0  0  0  0  0  0  0  0
    5.5917    0.1121   -1.5727 H   0  0  0  0  0  0  0  0  0  0  0  0
    6.7805    0.0367   -0.2705 H   0  0  0  0  0  0  0  0  0  0  0  0
    5.2125    1.3217    1.2256 H   0  0  0  0  0  0  0  0  0  0  0  0
    4.0368    1.3992   -0.0687 H   0  0  0  0  0  0  0  0  0  0  0  0
    5.0896   -1.1757    1.2206 H   0  0  0  0  0  0  0  0  0  0  0  0
    3.9043   -1.1295   -0.0909 H   0  0  0  0  0  0  0  0  0  0  0  0
    1.8667    0.2997    0.3667 H   0  0  0  0  0  0  0  0  0  0  0  0
    0.5024    1.1471    2.2124 H   0  0  0  0  0  0  0  0  0  0  0  0
    1.2357    0.0247    3.3519 H   0  0  0  0  0  0  0  0  0  0  0  0
   -0.3640   -1.5885    2.7741 H   0  0  0  0  0  0  0  0  0  0  0  0
   -2.0913   -2.5448    1.6673 H   0  0  0  0  0  0  0  0  0  0  0  0
   -2.9586   -1.7422    0.3492 H   0  0  0  0  0  0  0  0  0  0  0  0
   -3.0806   -1.0956    2.0110 H   0  0  0  0  0  0  0  0  0  0  0  0
   -6.9383    0.5726   -2.5634 H   0  0  0  0  0  0  0  0  0  0  0  0
   -6.9902    2.2147   -1.8915 H   0  0  0  0  0  0  0  0  0  0  0  0
   -6.1393    1.9213   -3.3947 H   0  0  0  0  0  0  0  0  0  0  0  0
   -4.2581    0.3752   -3.4147 H   0  0  0  0  0  0  0  0  0  0  0  0
   -5.6877    3.1137    0.6720 H   0  0  0  0  0  0  0  0  0  0  0  0
   -6.8895    1.8777    0.2323 H   0  0  0  0  0  0  0  0  0  0  0  0
   -5.7811    1.5783    1.5555 H   0  0  0  0  0  0  0  0  0  0  0  0
    0.2058   -2.9346   -0.3661 H   0  0  0  0  0  0  0  0  0  0  0  0
    0.5843   -1.3052   -0.9445 H   0  0  0  0  0  0  0  0  0  0  0  0
    1.8743   -2.4866   -0.7509 H   0  0  0  0  0  0  0  0  0  0  0  0
    1.9501   -2.5412    2.9918 H   0  0  0  0  0  0  0  0  0  0  0  0
    1.0663   -3.6902    1.9780 H   0  0  0  0  0  0  0  0  0  0  0  0
    2.6987   -3.1772    1.5211 H   0  0  0  0  0  0  0  0  0  0  0  0
  1  2  1  0
  2  3  1  0
  3  4  1  0
  4  5  1  0
  5  6  1  0
  6  7  1  0
  7  8  1  0
  8  9  1  0
  9 10  1  0
  9 11  1  0
 11 12  2  0
 11 13  1  0
 13 14  2  0
 14 15  1  0
 15 16  2  0
 16 17  1  0
 16 18  1  0
 18 19  1  0
 19 20  2  0
 15 21  1  0
  8 22  1  0
 22 23  1  0
 22 24  1  0
 22  6  1  0
 19 13  1  0
  1 25  1  0
  1 26  1  0
  1 27  1  0
  2 28  1  0
  2 29  1  0
  3 30  1  0
  3 31  1  0
  4 32  1  0
  4 33  1  0
  6 34  1  0
  7 35  1  0
  7 36  1  0
  8 37  1  0
 10 38  1  0
 10 39  1  0
 10 40  1  0
 17 41  1  0
 17 42  1  0
 17 43  1  0
 18 44  1  0
 21 45  1  0
 21 46  1  0
 21 47  1  0
 23 48  1  0
 23 49  1  0
 23 50  1  0
 24 51  1  0
 24 52  1  0
 24 53  1  0
M  END
>  <Unnamed: 0>  (218) 
1308

>  <ID>  (218) 
TRAIN_1308

>  <Canonical_Smiles>  (218) 
CCCCOC1CC(N(C)C(=O)C2=NC(=C(C)NC2=O)C)C1(C)C

>  <Inhibition>  (218) 
0.5

>  <TDC_conf_true_inhibitor>  (218) 
0

>  <TDC_conf_non_inhibitor>  (218) 
1

>  <split>  (218) 
1

$$$$
218
     RDKit          3D

 28 30  0  0  0  0  0  0  0  0999 V2000
   -4.2181    1.4119    0.9122 C   0  0  0  0  0  0  0  0  0  0  0  0
   -3.2674    0.3641    0.4120 C   0  0  0  0  0  0  0  0  0  0  0  0
   -3.7463   -0.8673   -0.0463 C   0  0  0  0  0  0  0  0  0  0  0  0
   -2.8593   -1.8556   -0.4832 C   0  0  0  0  0  0  0  0  0  0  0  0
   -3.5244   -3.3496   -1.0449 Cl  0  0  0  0  0  0  0  0  0  0  0  0
   -1.4755   -1.6338   -0.4596 C   0  0  0  0  0  0  0  0  0  0  0  0
   -0.6607   -2.6459   -0.9034 O   0  0  0  0  0  0  0  0  0  0  0  0
   -0.9819   -0.4058    0.0131 C   0  0  0  0  0  0  0  0  0  0  0  0
   -1.8840    0.5836    0.4511 C   0  0  0  0  0  0  0  0  0  0  0  0
    0.4113   -0.1324    0.0644 N   0  0  0  0  0  0  0  0  0  0  0  0
    1.3243   -1.0531   -0.3459 N   0  0  0  0  0  0  0  0  0  0  0  0
    2.4936   -0.4283   -0.1435 C   0  0  0  0  0  0  0  0  0  0  0  0
    3.7996   -0.8891   -0.3850 C   0  0  0  0  0  0  0  0  0  0  0  0
    4.8126    0.0327   -0.0562 C   0  0  0  0  0  0  0  0  0  0  0  0
    4.5482    1.3237    0.4759 C   0  0  0  0  0  0  0  0  0  0  0  0
    3.2481    1.8043    0.7251 C   0  0  0  0  0  0  0  0  0  0  0  0
    2.2217    0.8990    0.4035 C   0  0  0  0  0  0  0  0  0  0  0  0
    0.8956    1.0466    0.5195 N   0  0  0  0  0  0  0  0  0  0  0  0
   -5.1814    1.3443    0.3959 H   0  0  0  0  0  0  0  0  0  0  0  0
   -4.3828    1.2849    1.9865 H   0  0  0  0  0  0  0  0  0  0  0  0
   -3.8224    2.4166    0.7301 H   0  0  0  0  0  0  0  0  0  0  0  0
   -4.8169   -1.0609   -0.0654 H   0  0  0  0  0  0  0  0  0  0  0  0
    0.2762   -2.3611   -0.8302 H   0  0  0  0  0  0  0  0  0  0  0  0
   -1.5147    1.5381    0.8271 H   0  0  0  0  0  0  0  0  0  0  0  0
    4.0077   -1.8707   -0.7899 H   0  0  0  0  0  0  0  0  0  0  0  0
    5.8515   -0.2579   -0.2176 H   0  0  0  0  0  0  0  0  0  0  0  0
    5.3943    1.9738    0.7022 H   0  0  0  0  0  0  0  0  0  0  0  0
    3.0513    2.7879    1.1303 H   0  0  0  0  0  0  0  0  0  0  0  0
  1  2  1  0
  2  3  2  0
  3  4  1  0
  4  5  1  0
  4  6  2  0
  6  7  1  0
  6  8  1  0
  8  9  2  0
  8 10  1  0
 10 11  1  0
 11 12  2  0
 12 13  1  0
 13 14  2  0
 14 15  1  0
 15 16  2  0
 16 17  1  0
 17 18  2  0
  9  2  1  0
 18 10  1  0
 17 12  1  0
  1 19  1  0
  1 20  1  0
  1 21  1  0
  3 22  1  0
  7 23  1  0
  9 24  1  0
 13 25  1  0
 14 26  1  0
 15 27  1  0
 16 28  1  0
M  END
>  <Unnamed: 0>  (219) 
1309

>  <ID>  (219) 
TRAIN_1309

>  <Canonical_Smiles>  (219) 
Cc1cc(Cl)c(O)c(c1)n2nc3ccccc3n2

>  <Inhibition>  (219) 
22.0

>  <TDC_conf_true_inhibitor>  (219) 
0

>  <TDC_conf_non_inhibitor>  (219) 
1

>  <split>  (219) 
1

$$$$
219
     RDKit          3D

 37 39  0  0  0  0  0  0  0  0999 V2000
   -4.3447    2.2298   -0.5295 C   0  0  0  0  0  0  0  0  0  0  0  0
   -3.2839    1.3397    0.0459 C   0  0  0  0  0  0  0  0  0  0  0  0
   -2.9679    1.3953    1.4023 C   0  0  0  0  0  0  0  0  0  0  0  0
   -2.0002    0.5430    1.9365 C   0  0  0  0  0  0  0  0  0  0  0  0
   -1.3321   -0.3991    1.1339 C   0  0  0  0  0  0  0  0  0  0  0  0
   -0.2973   -1.2730    1.7904 C   0  0  0  0  0  0  0  0  0  0  0  0
   -1.6434   -0.4651   -0.2415 C   0  0  0  0  0  0  0  0  0  0  0  0
   -2.6279    0.4024   -0.7602 C   0  0  0  0  0  0  0  0  0  0  0  0
   -1.0402   -1.3568   -1.1744 N   0  0  0  0  0  0  0  0  0  0  0  0
   -1.2439   -2.7087   -1.0460 C   0  0  0  0  0  0  0  0  0  0  0  0
   -0.2116   -3.4819   -1.1734 N   0  0  0  0  0  0  0  0  0  0  0  0
    0.8312   -2.6007   -1.3799 C   0  0  0  0  0  0  0  0  0  0  0  0
    1.9673   -2.9166   -1.7025 O   0  0  0  0  0  0  0  0  0  0  0  0
    0.3722   -1.2960   -1.2159 N   0  0  0  0  0  0  0  0  0  0  0  0
    1.0137   -0.1903   -1.8911 C   0  0  0  0  0  0  0  0  0  0  0  0
    2.0848    0.3514   -1.0251 C   0  0  0  0  0  0  0  0  0  0  0  0
    1.8041    1.5052   -0.3616 O   0  0  0  0  0  0  0  0  0  0  0  0
    2.8972    1.8759    0.4008 N   0  0  0  0  0  0  0  0  0  0  0  0
    3.8245    0.9336    0.1904 C   0  0  0  0  0  0  0  0  0  0  0  0
    5.1371    1.0150    0.8678 C   0  0  0  0  0  0  0  0  0  0  0  0
    3.3604   -0.0506   -0.7090 C   0  0  0  0  0  0  0  0  0  0  0  0
   -4.1075    2.4993   -1.5639 H   0  0  0  0  0  0  0  0  0  0  0  0
   -4.4253    3.1624    0.0385 H   0  0  0  0  0  0  0  0  0  0  0  0
   -5.3126    1.7197   -0.5086 H   0  0  0  0  0  0  0  0  0  0  0  0
   -3.4680    2.1062    2.0567 H   0  0  0  0  0  0  0  0  0  0  0  0
   -1.7679    0.6213    2.9975 H   0  0  0  0  0  0  0  0  0  0  0  0
   -0.4714   -2.3278    1.5616 H   0  0  0  0  0  0  0  0  0  0  0  0
    0.7084   -0.9827    1.4743 H   0  0  0  0  0  0  0  0  0  0  0  0
   -0.3346   -1.1827    2.8819 H   0  0  0  0  0  0  0  0  0  0  0  0
   -2.8780    0.3460   -1.8187 H   0  0  0  0  0  0  0  0  0  0  0  0
   -2.2718   -3.0400   -0.8276 H   0  0  0  0  0  0  0  0  0  0  0  0
    1.4356   -0.5399   -2.8402 H   0  0  0  0  0  0  0  0  0  0  0  0
    0.2766    0.5873   -2.1197 H   0  0  0  0  0  0  0  0  0  0  0  0
    5.7423    0.1260    0.6643 H   0  0  0  0  0  0  0  0  0  0  0  0
    5.0084    1.0939    1.9520 H   0  0  0  0  0  0  0  0  0  0  0  0
    5.6940    1.8910    0.5207 H   0  0  0  0  0  0  0  0  0  0  0  0
    3.8725   -0.9325   -1.0671 H   0  0  0  0  0  0  0  0  0  0  0  0
  1  2  1  0
  2  3  2  0
  3  4  1  0
  4  5  2  0
  5  6  1  0
  5  7  1  0
  7  8  2  0
  7  9  1  0
  9 10  1  0
 10 11  2  0
 11 12  1  0
 12 13  2  0
 12 14  1  0
 14 15  1  0
 15 16  1  0
 16 17  1  0
 17 18  1  0
 18 19  2  0
 19 20  1  0
 19 21  1  0
  8  2  1  0
 14  9  1  0
 21 16  2  0
  1 22  1  0
  1 23  1  0
  1 24  1  0
  3 25  1  0
  4 26  1  0
  6 27  1  0
  6 28  1  0
  6 29  1  0
  8 30  1  0
 10 31  1  0
 15 32  1  0
 15 33  1  0
 20 34  1  0
 20 35  1  0
 20 36  1  0
 21 37  1  0
M  END
>  <Unnamed: 0>  (220) 
1313

>  <ID>  (220) 
TRAIN_1313

>  <Canonical_Smiles>  (220) 
Cc1ccc(C)c(c1)N2C=NC(=O)N2Cc3onc(C)c3

>  <Inhibition>  (220) 
14.3

>  <TDC_conf_true_inhibitor>  (220) 
0

>  <TDC_conf_non_inhibitor>  (220) 
1

>  <split>  (220) 
1

$$$$
220
     RDKit          3D

 48 51  0  0  0  0  0  0  0  0999 V2000
    5.5706   -1.5181   -2.2457 C   0  0  0  0  0  0  0  0  0  0  0  0
    5.7495   -0.8484   -0.8934 C   0  0  0  0  0  0  0  0  0  0  0  0
    5.0656   -1.8540    0.4510 S   0  0  0  0  0  0  0  0  0  0  0  0
    3.3555   -1.5364    0.3323 C   0  0  0  0  0  0  0  0  0  0  0  0
    2.4442   -2.2382    1.0747 N   0  0  0  0  0  0  0  0  0  0  0  0
    1.2831   -1.7272    0.7285 C   0  0  0  0  0  0  0  0  0  0  0  0
    0.0363   -2.0849    1.1197 N   0  0  0  0  0  0  0  0  0  0  0  0
   -0.9761   -1.5561    0.5049 C   0  0  0  0  0  0  0  0  0  0  0  0
   -2.3499   -2.0905    0.8914 C   0  0  0  0  0  0  0  0  0  0  0  0
   -3.5205   -1.2009    0.4483 C   0  0  0  0  0  0  0  0  0  0  0  0
   -4.8379   -1.9835    0.5979 C   0  0  0  0  0  0  0  0  0  0  0  0
   -3.6077    0.0536    1.3428 C   0  0  0  0  0  0  0  0  0  0  0  0
   -3.3316   -0.8115   -1.0323 C   0  0  0  0  0  0  0  0  0  0  0  0
   -1.9641   -0.2495   -1.3154 C   0  0  0  0  0  0  0  0  0  0  0  0
   -0.8755   -0.5314   -0.5813 C   0  0  0  0  0  0  0  0  0  0  0  0
    0.4840    0.0937   -0.7798 C   0  0  0  0  0  0  0  0  0  0  0  0
    0.5532    1.5200   -0.2377 C   0  0  0  0  0  0  0  0  0  0  0  0
    0.8064    2.5886   -1.1153 C   0  0  0  0  0  0  0  0  0  0  0  0
    0.8633    3.9026   -0.6437 C   0  0  0  0  0  0  0  0  0  0  0  0
    0.6651    4.1707    0.7097 C   0  0  0  0  0  0  0  0  0  0  0  0
    0.4114    3.1186    1.5820 C   0  0  0  0  0  0  0  0  0  0  0  0
    0.2065    3.3335    2.9128 O   0  0  0  0  0  0  0  0  0  0  0  0
    0.3550    1.8055    1.1249 C   0  0  0  0  0  0  0  0  0  0  0  0
    1.5243   -0.7245   -0.1721 N   0  0  0  0  0  0  0  0  0  0  0  0
    2.8322   -0.6089   -0.4755 N   0  0  0  0  0  0  0  0  0  0  0  0
   -1.8690    0.6392   -2.3705 O   0  0  0  0  0  0  0  0  0  0  0  0
    6.0332   -0.9049   -3.0265 H   0  0  0  0  0  0  0  0  0  0  0  0
    4.5154   -1.6425   -2.5082 H   0  0  0  0  0  0  0  0  0  0  0  0
    6.0521   -2.5017   -2.2718 H   0  0  0  0  0  0  0  0  0  0  0  0
    6.8209   -0.7307   -0.6981 H   0  0  0  0  0  0  0  0  0  0  0  0
    5.3185    0.1578   -0.8920 H   0  0  0  0  0  0  0  0  0  0  0  0
   -2.4330   -3.0847    0.4321 H   0  0  0  0  0  0  0  0  0  0  0  0
   -2.3731   -2.2400    1.9783 H   0  0  0  0  0  0  0  0  0  0  0  0
   -4.8361   -2.8879   -0.0211 H   0  0  0  0  0  0  0  0  0  0  0  0
   -5.6964   -1.3744    0.2929 H   0  0  0  0  0  0  0  0  0  0  0  0
   -4.9983   -2.2929    1.6370 H   0  0  0  0  0  0  0  0  0  0  0  0
   -2.6948    0.6558    1.3105 H   0  0  0  0  0  0  0  0  0  0  0  0
   -4.4380    0.6983    1.0329 H   0  0  0  0  0  0  0  0  0  0  0  0
   -3.7779   -0.2232    2.3896 H   0  0  0  0  0  0  0  0  0  0  0  0
   -3.4816   -1.6824   -1.6834 H   0  0  0  0  0  0  0  0  0  0  0  0
   -4.0996   -0.0774   -1.3082 H   0  0  0  0  0  0  0  0  0  0  0  0
    0.7205    0.0887   -1.8530 H   0  0  0  0  0  0  0  0  0  0  0  0
    0.9612    2.4035   -2.1768 H   0  0  0  0  0  0  0  0  0  0  0  0
    1.0631    4.7172   -1.3354 H   0  0  0  0  0  0  0  0  0  0  0  0
    0.7108    5.1963    1.0615 H   0  0  0  0  0  0  0  0  0  0  0  0
    0.3504    4.2754    3.1008 H   0  0  0  0  0  0  0  0  0  0  0  0
    0.1609    1.0133    1.8449 H   0  0  0  0  0  0  0  0  0  0  0  0
   -2.7522    0.7745   -2.7600 H   0  0  0  0  0  0  0  0  0  0  0  0
  1  2  1  0
  2  3  1  0
  3  4  1  0
  4  5  1  0
  5  6  2  0
  6  7  1  0
  7  8  2  0
  8  9  1  0
  9 10  1  0
 10 11  1  0
 10 12  1  0
 10 13  1  0
 13 14  1  0
 14 15  2  0
 15 16  1  0
 16 17  1  0
 17 18  2  0
 18 19  1  0
 19 20  2  0
 20 21  1  0
 21 22  1  0
 21 23  2  0
 16 24  1  0
 24 25  1  0
 14 26  1  0
 25  4  2  0
 24  6  1  0
 15  8  1  0
 23 17  1  0
  1 27  1  0
  1 28  1  0
  1 29  1  0
  2 30  1  0
  2 31  1  0
  9 32  1  0
  9 33  1  0
 11 34  1  0
 11 35  1  0
 11 36  1  0
 12 37  1  0
 12 38  1  0
 12 39  1  0
 13 40  1  0
 13 41  1  0
 16 42  1  0
 18 43  1  0
 19 44  1  0
 20 45  1  0
 22 46  1  0
 23 47  1  0
 26 48  1  0
M  END
>  <Unnamed: 0>  (221) 
1315

>  <ID>  (221) 
TRAIN_1315

>  <Canonical_Smiles>  (221) 
CCSc1nc2N=C3CC(C)(C)CC(=C3C(c4cccc(O)c4)n2n1)O

>  <Inhibition>  (221) 
11.2

>  <TDC_conf_true_inhibitor>  (221) 
0

>  <TDC_conf_non_inhibitor>  (221) 
1

>  <split>  (221) 
1

$$$$
221
     RDKit          3D

 41 43  0  0  0  0  0  0  0  0999 V2000
   -5.6045    3.8181    1.5125 C   0  0  0  0  0  0  0  0  0  0  0  0
   -4.4203    3.1384    1.0979 O   0  0  0  0  0  0  0  0  0  0  0  0
   -4.6497    2.0519    0.3035 C   0  0  0  0  0  0  0  0  0  0  0  0
   -5.7708    1.6868   -0.0350 O   0  0  0  0  0  0  0  0  0  0  0  0
   -3.4141    1.3737   -0.1131 C   0  0  0  0  0  0  0  0  0  0  0  0
   -3.3729    0.2965   -0.9941 C   0  0  0  0  0  0  0  0  0  0  0  0
   -4.4662   -0.4207   -1.7055 C   0  0  0  0  0  0  0  0  0  0  0  0
   -2.0640   -0.0722   -1.1579 N   0  0  0  0  0  0  0  0  0  0  0  0
   -1.2410    0.7401   -0.4206 C   0  0  0  0  0  0  0  0  0  0  0  0
    0.1481    0.4984   -0.5195 C   0  0  0  0  0  0  0  0  0  0  0  0
    1.0303    1.5018   -0.6873 C   0  0  0  0  0  0  0  0  0  0  0  0
    2.7020    0.9607   -0.7589 S   0  0  0  0  0  0  0  0  0  0  0  0
    2.1216   -0.7177   -0.4873 C   0  0  0  0  0  0  0  0  0  0  0  0
    2.9628   -1.7613   -0.2811 C   0  0  0  0  0  0  0  0  0  0  0  0
    4.4237   -1.6626   -0.3317 C   0  0  0  0  0  0  0  0  0  0  0  0
    5.3118   -2.5203    0.1888 C   0  0  0  0  0  0  0  0  0  0  0  0
    6.7455   -2.3862    0.1064 C   0  0  0  0  0  0  0  0  0  0  0  0
    7.3447   -3.3995    0.7338 C   0  0  0  0  0  0  0  0  0  0  0  0
    6.1882   -4.1546    1.2070 C   0  0  0  0  0  0  0  0  0  0  0  0
    5.0309   -3.6564    0.9024 N   0  0  0  0  0  0  0  0  0  0  0  0
    2.3616   -3.0482   -0.0743 C   0  0  0  0  0  0  0  0  0  0  0  0
    1.7709   -4.0398    0.0616 N   0  0  0  0  0  0  0  0  0  0  0  0
    0.7338   -0.7510   -0.4770 N   0  0  0  0  0  0  0  0  0  0  0  0
   -2.0435    1.6408    0.2673 C   0  0  0  0  0  0  0  0  0  0  0  0
   -1.5799    2.6801    1.2328 C   0  0  0  0  0  0  0  0  0  0  0  0
   -5.3074    4.6621    2.1412 H   0  0  0  0  0  0  0  0  0  0  0  0
   -6.1475    4.2077    0.6457 H   0  0  0  0  0  0  0  0  0  0  0  0
   -6.2416    3.1540    2.1050 H   0  0  0  0  0  0  0  0  0  0  0  0
   -5.0281    0.2717   -2.3405 H   0  0  0  0  0  0  0  0  0  0  0  0
   -5.1555   -0.8754   -0.9871 H   0  0  0  0  0  0  0  0  0  0  0  0
   -4.0749   -1.2186   -2.3453 H   0  0  0  0  0  0  0  0  0  0  0  0
   -1.7393   -0.8178   -1.7609 H   0  0  0  0  0  0  0  0  0  0  0  0
    0.7800    2.5508   -0.7682 H   0  0  0  0  0  0  0  0  0  0  0  0
    4.8254   -0.7932   -0.8464 H   0  0  0  0  0  0  0  0  0  0  0  0
    7.2510   -1.5757   -0.3961 H   0  0  0  0  0  0  0  0  0  0  0  0
    8.3824   -3.6284    0.8754 H   0  0  0  0  0  0  0  0  0  0  0  0
    6.3402   -5.0790    1.7827 H   0  0  0  0  0  0  0  0  0  0  0  0
    0.2439   -1.5084   -0.0135 H   0  0  0  0  0  0  0  0  0  0  0  0
   -0.5222    2.5627    1.4853 H   0  0  0  0  0  0  0  0  0  0  0  0
   -2.1377    2.6103    2.1721 H   0  0  0  0  0  0  0  0  0  0  0  0
   -1.7177    3.6805    0.8106 H   0  0  0  0  0  0  0  0  0  0  0  0
  1  2  1  0
  2  3  1  0
  3  4  2  0
  3  5  1  0
  5  6  2  0
  6  7  1  0
  6  8  1  0
  8  9  1  0
  9 10  1  0
 10 11  2  0
 11 12  1  0
 12 13  1  0
 13 14  2  0
 14 15  1  0
 15 16  2  0
 16 17  1  0
 17 18  2  0
 18 19  1  0
 19 20  2  0
 14 21  1  0
 21 22  3  0
 13 23  1  0
  9 24  2  0
 24 25  1  0
 24  5  1  0
 23 10  1  0
 20 16  1  0
  1 26  1  0
  1 27  1  0
  1 28  1  0
  7 29  1  0
  7 30  1  0
  7 31  1  0
  8 32  1  0
 11 33  1  0
 15 34  1  0
 17 35  1  0
 18 36  1  0
 19 37  1  0
 23 38  1  0
 25 39  1  0
 25 40  1  0
 25 41  1  0
M  END
>  <Unnamed: 0>  (222) 
1317

>  <ID>  (222) 
TRAIN_1317

>  <Canonical_Smiles>  (222) 
COC(=O)c1c(C)[nH]c(C2=CS\C(=C(/C=C3C=CC=N3)\C#N)\N2)c1C

>  <Inhibition>  (222) 
91.1

>  <TDC_conf_true_inhibitor>  (222) 
1

>  <TDC_conf_non_inhibitor>  (222) 
0

>  <split>  (222) 
1

$$$$
222
     RDKit          3D

 47 50  0  0  0  0  0  0  0  0999 V2000
    6.5176    1.9285   -0.6414 C   0  0  0  0  0  0  0  0  0  0  0  0
    6.4266    1.0722    0.4920 O   0  0  0  0  0  0  0  0  0  0  0  0
    5.2895    0.2810    0.4891 C   0  0  0  0  0  0  0  0  0  0  0  0
    5.1628   -0.5704    1.5869 C   0  0  0  0  0  0  0  0  0  0  0  0
    4.0502   -1.4125    1.6820 C   0  0  0  0  0  0  0  0  0  0  0  0
    3.1159   -1.3431    0.6452 C   0  0  0  0  0  0  0  0  0  0  0  0
    1.9381   -2.0142    0.4336 N   0  0  0  0  0  0  0  0  0  0  0  0
    1.4625   -1.5410   -0.7074 C   0  0  0  0  0  0  0  0  0  0  0  0
    0.1846   -1.9318   -1.3893 C   0  0  0  0  0  0  0  0  0  0  0  0
   -1.0437   -1.4788   -0.7180 N   0  0  0  0  0  0  0  0  0  0  0  0
   -1.2575   -2.1277    0.5873 C   0  0  0  0  0  0  0  0  0  0  0  0
   -1.1457   -1.2213    1.8153 C   0  0  0  0  0  0  0  0  0  0  0  0
   -2.4106    0.0948    1.8320 S   0  0  0  0  0  0  0  0  0  0  0  0
   -2.4620    0.5283    0.0226 C   0  0  0  0  0  0  0  0  0  0  0  0
   -2.4654    2.0739   -0.0991 C   0  0  0  0  0  0  0  0  0  0  0  0
   -3.7617    2.7424    0.3637 C   0  0  0  0  0  0  0  0  0  0  0  0
   -4.9796    2.1430   -0.3280 C   0  0  0  0  0  0  0  0  0  0  0  0
   -5.0394    0.6308   -0.1532 C   0  0  0  0  0  0  0  0  0  0  0  0
   -3.7482   -0.0467   -0.6191 C   0  0  0  0  0  0  0  0  0  0  0  0
   -1.1900   -0.0159   -0.6967 C   0  0  0  0  0  0  0  0  0  0  0  0
    2.3105   -0.5963   -1.2389 N   0  0  0  0  0  0  0  0  0  0  0  0
    3.3651   -0.4519   -0.3881 C   0  0  0  0  0  0  0  0  0  0  0  0
    4.4095    0.3810   -0.5386 N   0  0  0  0  0  0  0  0  0  0  0  0
    7.4408    2.5084   -0.5473 H   0  0  0  0  0  0  0  0  0  0  0  0
    5.6821    2.6365   -0.6723 H   0  0  0  0  0  0  0  0  0  0  0  0
    6.5806    1.3519   -1.5707 H   0  0  0  0  0  0  0  0  0  0  0  0
    5.9235   -0.5772    2.3606 H   0  0  0  0  0  0  0  0  0  0  0  0
    3.9121   -2.0884    2.5166 H   0  0  0  0  0  0  0  0  0  0  0  0
    0.1841   -1.5541   -2.4201 H   0  0  0  0  0  0  0  0  0  0  0  0
    0.1618   -3.0247   -1.4885 H   0  0  0  0  0  0  0  0  0  0  0  0
   -0.5847   -2.9842    0.7218 H   0  0  0  0  0  0  0  0  0  0  0  0
   -2.2598   -2.5751    0.5711 H   0  0  0  0  0  0  0  0  0  0  0  0
   -0.1559   -0.7585    1.8807 H   0  0  0  0  0  0  0  0  0  0  0  0
   -1.2808   -1.8173    2.7238 H   0  0  0  0  0  0  0  0  0  0  0  0
   -1.6172    2.5092    0.4454 H   0  0  0  0  0  0  0  0  0  0  0  0
   -2.3132    2.3458   -1.1531 H   0  0  0  0  0  0  0  0  0  0  0  0
   -3.7125    3.8158    0.1463 H   0  0  0  0  0  0  0  0  0  0  0  0
   -3.8720    2.6519    1.4503 H   0  0  0  0  0  0  0  0  0  0  0  0
   -5.8928    2.5977    0.0724 H   0  0  0  0  0  0  0  0  0  0  0  0
   -4.9468    2.3849   -1.3976 H   0  0  0  0  0  0  0  0  0  0  0  0
   -5.8837    0.2327   -0.7281 H   0  0  0  0  0  0  0  0  0  0  0  0
   -5.2384    0.3881    0.8970 H   0  0  0  0  0  0  0  0  0  0  0  0
   -3.6821    0.0755   -1.7092 H   0  0  0  0  0  0  0  0  0  0  0  0
   -3.8355   -1.1252   -0.4441 H   0  0  0  0  0  0  0  0  0  0  0  0
   -0.3060    0.4594   -0.2499 H   0  0  0  0  0  0  0  0  0  0  0  0
   -1.2170    0.3273   -1.7400 H   0  0  0  0  0  0  0  0  0  0  0  0
    2.1846   -0.0816   -2.0966 H   0  0  0  0  0  0  0  0  0  0  0  0
  1  2  1  0
  2  3  1  0
  3  4  2  0
  4  5  1  0
  5  6  2  0
  6  7  1  0
  7  8  2  0
  8  9  1  0
  9 10  1  0
 10 11  1  0
 11 12  1  0
 12 13  1  0
 13 14  1  0
 14 15  1  0
 15 16  1  0
 16 17  1  0
 17 18  1  0
 18 19  1  0
 14 20  1  0
  8 21  1  0
 21 22  1  0
 22 23  2  0
 23  3  1  0
 22  6  1  0
 20 10  1  0
 19 14  1  0
  1 24  1  0
  1 25  1  0
  1 26  1  0
  4 27  1  0
  5 28  1  0
  9 29  1  0
  9 30  1  0
 11 31  1  0
 11 32  1  0
 12 33  1  0
 12 34  1  0
 15 35  1  0
 15 36  1  0
 16 37  1  0
 16 38  1  0
 17 39  1  0
 17 40  1  0
 18 41  1  0
 18 42  1  0
 19 43  1  0
 19 44  1  0
 20 45  1  0
 20 46  1  0
 21 47  1  0
M  END
>  <Unnamed: 0>  (223) 
1321

>  <ID>  (223) 
TRAIN_1321

>  <Canonical_Smiles>  (223) 
COc1ccc2nc(CN3CCSC4(CCCCC4)C3)[nH]c2n1

>  <Inhibition>  (223) 
52.8

>  <TDC_conf_true_inhibitor>  (223) 
1

>  <TDC_conf_non_inhibitor>  (223) 
0

>  <split>  (223) 
1

$$$$
223
     RDKit          3D

 38 40  0  0  0  0  0  0  0  0999 V2000
    6.9171    0.4799   -0.0417 C   0  0  0  0  0  0  0  0  0  0  0  0
    5.5166    0.3322   -0.3356 N   0  0  0  0  0  0  0  0  0  0  0  0
    4.9183    0.2609   -1.5352 C   0  0  0  0  0  0  0  0  0  0  0  0
    3.6328    0.1287   -1.5067 N   0  0  0  0  0  0  0  0  0  0  0  0
    3.3303    0.1072   -0.1558 N   0  0  0  0  0  0  0  0  0  0  0  0
    4.5131    0.2369    0.6018 C   0  0  0  0  0  0  0  0  0  0  0  0
    4.6722    0.2660    1.8128 O   0  0  0  0  0  0  0  0  0  0  0  0
    1.9957   -0.0282    0.2755 C   0  0  0  0  0  0  0  0  0  0  0  0
    0.9598   -0.1447   -0.6571 C   0  0  0  0  0  0  0  0  0  0  0  0
   -0.3779   -0.2800   -0.2505 C   0  0  0  0  0  0  0  0  0  0  0  0
   -0.7344   -0.2795    1.0964 C   0  0  0  0  0  0  0  0  0  0  0  0
   -2.0158   -0.4682    1.5858 N   0  0  0  0  0  0  0  0  0  0  0  0
   -3.2857   -0.4538    0.8474 C   0  0  0  0  0  0  0  0  0  0  0  0
   -3.5269    0.8859    0.1403 C   0  0  0  0  0  0  0  0  0  0  0  0
   -4.9148    0.9778   -0.4936 C   0  0  0  0  0  0  0  0  0  0  0  0
   -5.1701   -0.1067   -1.5324 C   0  0  0  0  0  0  0  0  0  0  0  0
   -5.1257   -1.7657   -0.7963 S   0  0  0  0  0  0  0  0  0  0  0  0
   -3.4653   -1.6910   -0.0432 C   0  0  0  0  0  0  0  0  0  0  0  0
    0.3155   -0.1944    2.0232 C   0  0  0  0  0  0  0  0  0  0  0  0
    1.6549   -0.0601    1.6266 C   0  0  0  0  0  0  0  0  0  0  0  0
    7.0612    1.3940    0.5414 H   0  0  0  0  0  0  0  0  0  0  0  0
    7.2432   -0.3712    0.5629 H   0  0  0  0  0  0  0  0  0  0  0  0
    7.4974    0.5286   -0.9664 H   0  0  0  0  0  0  0  0  0  0  0  0
    5.5365    0.3175   -2.4409 H   0  0  0  0  0  0  0  0  0  0  0  0
    1.1781   -0.1383   -1.7226 H   0  0  0  0  0  0  0  0  0  0  0  0
   -1.1186   -0.3740   -1.0345 H   0  0  0  0  0  0  0  0  0  0  0  0
   -2.1200   -0.1188    2.5362 H   0  0  0  0  0  0  0  0  0  0  0  0
   -4.0562   -0.5306    1.6287 H   0  0  0  0  0  0  0  0  0  0  0  0
   -2.7791    1.0638   -0.6390 H   0  0  0  0  0  0  0  0  0  0  0  0
   -3.4141    1.7048    0.8622 H   0  0  0  0  0  0  0  0  0  0  0  0
   -5.0125    1.9573   -0.9774 H   0  0  0  0  0  0  0  0  0  0  0  0
   -5.6839    0.9424    0.2884 H   0  0  0  0  0  0  0  0  0  0  0  0
   -6.1577    0.0380   -1.9817 H   0  0  0  0  0  0  0  0  0  0  0  0
   -4.4319   -0.0553   -2.3397 H   0  0  0  0  0  0  0  0  0  0  0  0
   -2.7376   -1.7324   -0.8560 H   0  0  0  0  0  0  0  0  0  0  0  0
   -3.3260   -2.6017    0.5499 H   0  0  0  0  0  0  0  0  0  0  0  0
    0.1024   -0.2359    3.0895 H   0  0  0  0  0  0  0  0  0  0  0  0
    2.4091    0.0087    2.4048 H   0  0  0  0  0  0  0  0  0  0  0  0
  1  2  1  0
  2  3  1  0
  3  4  2  0
  4  5  1  0
  5  6  1  0
  6  7  2  0
  5  8  1  0
  8  9  2  0
  9 10  1  0
 10 11  2  0
 11 12  1  0
 12 13  1  0
 13 14  1  0
 14 15  1  0
 15 16  1  0
 16 17  1  0
 17 18  1  0
 11 19  1  0
 19 20  2  0
  6  2  1  0
 20  8  1  0
 18 13  1  0
  1 21  1  0
  1 22  1  0
  1 23  1  0
  3 24  1  0
  9 25  1  0
 10 26  1  0
 12 27  1  0
 13 28  1  0
 14 29  1  0
 14 30  1  0
 15 31  1  0
 15 32  1  0
 16 33  1  0
 16 34  1  0
 18 35  1  0
 18 36  1  0
 19 37  1  0
 20 38  1  0
M  END
>  <Unnamed: 0>  (224) 
1322

>  <ID>  (224) 
TRAIN_1322

>  <Canonical_Smiles>  (224) 
CN1C=NN(C1=O)c2ccc(NC3CCCSC3)cc2

>  <Inhibition>  (224) 
33.3

>  <TDC_conf_true_inhibitor>  (224) 
0

>  <TDC_conf_non_inhibitor>  (224) 
1

>  <split>  (224) 
1

$$$$
224
     RDKit          3D

 35 37  0  0  0  0  0  0  0  0999 V2000
   -0.8851    0.3754    2.8232 C   0  0  0  0  0  0  0  0  0  0  0  0
   -0.4854    0.2155    1.4149 N   0  0  0  0  0  0  0  0  0  0  0  0
    0.8874    0.3534    1.2844 N   0  0  0  0  0  0  0  0  0  0  0  0
    1.2913    0.7149    0.1045 C   0  0  0  0  0  0  0  0  0  0  0  0
    2.7225    0.8661   -0.2232 C   0  0  0  0  0  0  0  0  0  0  0  0
    3.7175    0.5323    0.7026 C   0  0  0  0  0  0  0  0  0  0  0  0
    5.0624    0.6779    0.3567 C   0  0  0  0  0  0  0  0  0  0  0  0
    5.4120    1.1530   -0.9083 C   0  0  0  0  0  0  0  0  0  0  0  0
    4.4103    1.4817   -1.8193 C   0  0  0  0  0  0  0  0  0  0  0  0
    4.7095    1.9504   -3.0637 O   0  0  0  0  0  0  0  0  0  0  0  0
    3.0670    1.3427   -1.4892 C   0  0  0  0  0  0  0  0  0  0  0  0
   -1.1721   -0.7529    0.6985 C   0  0  0  0  0  0  0  0  0  0  0  0
   -0.5958   -1.8368    0.1379 N   0  0  0  0  0  0  0  0  0  0  0  0
   -1.8067   -2.5744   -0.4983 S   0  0  0  0  0  6  0  0  0  0  0  0
   -1.5107   -3.1146   -1.9839 O   0  0  0  0  0  0  0  0  0  0  0  0
   -2.0141   -3.9616    0.3121 O   0  0  0  0  0  0  0  0  0  0  0  0
   -3.1413   -1.6844   -0.3498 C   0  0  0  0  0  0  0  0  0  0  0  0
   -4.4726   -1.7835   -0.7745 C   0  0  0  0  0  0  0  0  0  0  0  0
   -5.3498   -0.7498   -0.4311 C   0  0  0  0  0  0  0  0  0  0  0  0
   -4.9077    0.3488    0.2988 C   0  0  0  0  0  0  0  0  0  0  0  0
   -3.5739    0.4438    0.7147 C   0  0  0  0  0  0  0  0  0  0  0  0
   -2.6521   -0.5918    0.4047 C   0  0  0  0  0  0  0  0  0  0  0  0
   -0.7817    1.4316    3.1135 H   0  0  0  0  0  0  0  0  0  0  0  0
   -1.9275    0.0812    3.0081 H   0  0  0  0  0  0  0  0  0  0  0  0
   -0.2463   -0.2333    3.4819 H   0  0  0  0  0  0  0  0  0  0  0  0
    0.5743    0.9362   -0.7081 H   0  0  0  0  0  0  0  0  0  0  0  0
    3.4503    0.1542    1.6850 H   0  0  0  0  0  0  0  0  0  0  0  0
    5.8367    0.4177    1.0732 H   0  0  0  0  0  0  0  0  0  0  0  0
    6.4616    1.2602   -1.1622 H   0  0  0  0  0  0  0  0  0  0  0  0
    5.6734    1.9176   -3.1876 H   0  0  0  0  0  0  0  0  0  0  0  0
    2.3062    1.6024   -2.2191 H   0  0  0  0  0  0  0  0  0  0  0  0
   -4.8128   -2.6396   -1.3513 H   0  0  0  0  0  0  0  0  0  0  0  0
   -6.3923   -0.8049   -0.7440 H   0  0  0  0  0  0  0  0  0  0  0  0
   -5.6066    1.1473    0.5469 H   0  0  0  0  0  0  0  0  0  0  0  0
   -3.2478    1.3234    1.2679 H   0  0  0  0  0  0  0  0  0  0  0  0
  1  2  1  0
  2  3  1  0
  3  4  2  0
  4  5  1  0
  5  6  2  0
  6  7  1  0
  7  8  2  0
  8  9  1  0
  9 10  1  0
  9 11  2  0
  2 12  1  0
 12 13  2  0
 13 14  1  0
 14 15  2  0
 14 16  2  0
 14 17  1  0
 17 18  2  0
 18 19  1  0
 19 20  2  0
 20 21  1  0
 21 22  2  0
 11  5  1  0
 22 12  1  0
 22 17  1  0
  1 23  1  0
  1 24  1  0
  1 25  1  0
  4 26  1  0
  6 27  1  0
  7 28  1  0
  8 29  1  0
 10 30  1  0
 11 31  1  0
 18 32  1  0
 19 33  1  0
 20 34  1  0
 21 35  1  0
M  END
>  <Unnamed: 0>  (225) 
1324

>  <ID>  (225) 
TRAIN_1324

>  <Canonical_Smiles>  (225) 
CN(\N=C\c1cccc(O)c1)C2=NS(=O)(=O)c3ccccc23

>  <Inhibition>  (225) 
18.4

>  <TDC_conf_true_inhibitor>  (225) 
0

>  <TDC_conf_non_inhibitor>  (225) 
1

>  <split>  (225) 
1

$$$$
225
     RDKit          3D

 37 37  0  0  0  0  0  0  0  0999 V2000
    5.2587   -0.9750   -0.8139 C   0  0  0  0  0  0  0  0  0  0  0  0
    4.4801   -0.7684    0.4760 C   0  0  0  0  0  0  0  0  0  0  0  0
    3.3234    0.2228    0.3367 C   0  0  0  0  0  0  0  0  0  0  0  0
    2.2288   -0.2580   -0.6195 C   0  0  0  0  0  0  0  0  0  0  0  0
    1.0550    0.6205   -0.5990 N   0  0  0  0  0  0  0  0  0  0  0  0
    1.1481    1.8449   -1.3829 C   0  0  0  0  0  0  0  0  0  0  0  0
   -0.0324    0.4728    0.2700 C   0  0  0  0  0  0  0  0  0  0  0  0
   -0.9338    1.3117    0.3026 O   0  0  0  0  0  0  0  0  0  0  0  0
   -0.0626   -0.7941    1.1219 C   0  0  0  0  0  0  0  0  0  0  0  0
   -1.2674   -0.8193    2.4744 S   0  0  0  0  0  0  0  0  0  0  0  0
   -2.7103   -0.1508    1.7882 C   0  0  0  0  0  0  0  0  0  0  0  0
   -3.3703    0.8094    2.3595 N   0  0  0  0  0  0  0  0  0  0  0  0
   -4.4985    1.2197    1.6978 C   0  0  0  0  0  0  0  0  0  0  0  0
   -4.9562    0.6867    0.5574 C   0  0  0  0  0  0  0  0  0  0  0  0
   -4.3029   -0.3636   -0.0549 N   0  0  0  0  0  0  0  0  0  0  0  0
   -4.8470   -0.9298   -1.2740 C   0  0  0  0  0  0  0  0  0  0  0  0
   -3.1401   -0.8973    0.5133 C   0  0  0  0  0  0  0  0  0  0  0  0
   -2.5416   -1.8653    0.0623 O   0  0  0  0  0  0  0  0  0  0  0  0
    5.6233   -0.0219   -1.2098 H   0  0  0  0  0  0  0  0  0  0  0  0
    6.1245   -1.6193   -0.6308 H   0  0  0  0  0  0  0  0  0  0  0  0
    4.6442   -1.4563   -1.5804 H   0  0  0  0  0  0  0  0  0  0  0  0
    5.1685   -0.3941    1.2431 H   0  0  0  0  0  0  0  0  0  0  0  0
    4.1028   -1.7337    0.8331 H   0  0  0  0  0  0  0  0  0  0  0  0
    3.7106    1.1927    0.0015 H   0  0  0  0  0  0  0  0  0  0  0  0
    2.8939    0.3938    1.3313 H   0  0  0  0  0  0  0  0  0  0  0  0
    2.5999   -0.2942   -1.6498 H   0  0  0  0  0  0  0  0  0  0  0  0
    1.9279   -1.2778   -0.3628 H   0  0  0  0  0  0  0  0  0  0  0  0
    1.8607    2.5195   -0.9002 H   0  0  0  0  0  0  0  0  0  0  0  0
    1.4968    1.6017   -2.3909 H   0  0  0  0  0  0  0  0  0  0  0  0
    0.1842    2.3538   -1.4655 H   0  0  0  0  0  0  0  0  0  0  0  0
   -0.2054   -1.6600    0.4708 H   0  0  0  0  0  0  0  0  0  0  0  0
    0.9074   -0.9084    1.6135 H   0  0  0  0  0  0  0  0  0  0  0  0
   -5.0323    2.0474    2.1588 H   0  0  0  0  0  0  0  0  0  0  0  0
   -5.8564    1.0628    0.0812 H   0  0  0  0  0  0  0  0  0  0  0  0
   -5.8154   -1.3882   -1.0501 H   0  0  0  0  0  0  0  0  0  0  0  0
   -4.9806   -0.1335   -2.0132 H   0  0  0  0  0  0  0  0  0  0  0  0
   -4.1858   -1.6915   -1.6958 H   0  0  0  0  0  0  0  0  0  0  0  0
  1  2  1  0
  2  3  1  0
  3  4  1  0
  4  5  1  0
  5  6  1  0
  5  7  1  0
  7  8  2  0
  7  9  1  0
  9 10  1  0
 10 11  1  0
 11 12  2  0
 12 13  1  0
 13 14  2  0
 14 15  1  0
 15 16  1  0
 15 17  1  0
 17 18  2  0
 17 11  1  0
  1 19  1  0
  1 20  1  0
  1 21  1  0
  2 22  1  0
  2 23  1  0
  3 24  1  0
  3 25  1  0
  4 26  1  0
  4 27  1  0
  6 28  1  0
  6 29  1  0
  6 30  1  0
  9 31  1  0
  9 32  1  0
 13 33  1  0
 14 34  1  0
 16 35  1  0
 16 36  1  0
 16 37  1  0
M  END
>  <Unnamed: 0>  (226) 
1330

>  <ID>  (226) 
TRAIN_1330

>  <Canonical_Smiles>  (226) 
CCCCN(C)C(=O)CSC1=NC=CN(C)C1=O

>  <Inhibition>  (226) 
3.36

>  <TDC_conf_true_inhibitor>  (226) 
0

>  <TDC_conf_non_inhibitor>  (226) 
1

>  <split>  (226) 
1

$$$$
226
     RDKit          3D

 33 36  0  0  0  0  0  0  0  0999 V2000
    1.0479   -2.2595   -0.9917 C   0  0  0  0  0  0  0  0  0  0  0  0
   -0.2571   -1.4830   -1.2110 C   0  0  0  0  0  0  0  0  0  0  0  0
   -0.4492   -0.4827   -0.1538 N   0  0  0  0  0  0  0  0  0  0  0  0
    0.7655   -0.1172    0.5941 C   0  0  0  0  0  0  0  0  0  0  0  0
    2.0105   -0.1528   -0.3324 C   0  0  0  0  0  0  0  0  0  0  0  0
    2.2097   -1.4248   -0.9850 O   0  0  0  0  0  0  0  0  0  0  0  0
    3.2589    0.2500    0.4169 C   0  0  0  0  0  0  0  0  0  0  0  0
    3.7527    1.5958    0.5079 C   0  0  0  0  0  0  0  0  0  0  0  0
    4.9017    1.6913    1.2610 C   0  0  0  0  0  0  0  0  0  0  0  0
    5.4003    0.1732    1.8638 S   0  0  0  0  0  0  0  0  0  0  0  0
    4.0823   -0.6163    1.1153 C   0  0  0  0  0  0  0  0  0  0  0  0
   -1.6780    0.1176    0.1081 C   0  0  0  0  0  0  0  0  0  0  0  0
   -1.7771    0.9044    1.1673 N   0  0  0  0  0  0  0  0  0  0  0  0
   -2.9793    1.5171    1.4701 C   0  0  0  0  0  0  0  0  0  0  0  0
   -4.0993    1.3758    0.7444 C   0  0  0  0  0  0  0  0  0  0  0  0
   -4.0334    0.5701   -0.3688 N   0  0  0  0  0  0  0  0  0  0  0  0
   -4.9387    0.2080   -1.3197 C   0  0  0  0  0  0  0  0  0  0  0  0
   -4.3647   -0.5887   -2.1972 N   0  0  0  0  0  0  0  0  0  0  0  0
   -3.0467   -0.7559   -1.8154 N   0  0  0  0  0  0  0  0  0  0  0  0
   -2.8708   -0.0600   -0.7126 C   0  0  0  0  0  0  0  0  0  0  0  0
    1.1805   -2.9990   -1.7880 H   0  0  0  0  0  0  0  0  0  0  0  0
    1.0180   -2.8080   -0.0426 H   0  0  0  0  0  0  0  0  0  0  0  0
   -1.0793   -2.2057   -1.2124 H   0  0  0  0  0  0  0  0  0  0  0  0
   -0.2243   -0.9711   -2.1792 H   0  0  0  0  0  0  0  0  0  0  0  0
    0.8841   -0.8216    1.4269 H   0  0  0  0  0  0  0  0  0  0  0  0
    0.6800    0.8875    1.0250 H   0  0  0  0  0  0  0  0  0  0  0  0
    1.8531    0.5696   -1.1449 H   0  0  0  0  0  0  0  0  0  0  0  0
    3.2843    2.4542    0.0405 H   0  0  0  0  0  0  0  0  0  0  0  0
    5.4749    2.5803    1.4858 H   0  0  0  0  0  0  0  0  0  0  0  0
    3.9723   -1.6881    1.2159 H   0  0  0  0  0  0  0  0  0  0  0  0
   -2.9748    2.1428    2.3595 H   0  0  0  0  0  0  0  0  0  0  0  0
   -5.0376    1.8568    0.9839 H   0  0  0  0  0  0  0  0  0  0  0  0
   -5.9663    0.5397   -1.3317 H   0  0  0  0  0  0  0  0  0  0  0  0
  1  2  1  0
  2  3  1  0
  3  4  1  0
  4  5  1  0
  5  6  1  0
  5  7  1  0
  7  8  1  0
  8  9  2  0
  9 10  1  0
 10 11  1  0
  3 12  1  0
 12 13  2  0
 13 14  1  0
 14 15  2  0
 15 16  1  0
 16 17  1  0
 17 18  2  0
 18 19  1  0
 19 20  2  0
  6  1  1  0
 11  7  2  0
 20 12  1  0
 20 16  1  0
  1 21  1  0
  1 22  1  0
  2 23  1  0
  2 24  1  0
  4 25  1  0
  4 26  1  0
  5 27  1  0
  8 28  1  0
  9 29  1  0
 11 30  1  0
 14 31  1  0
 15 32  1  0
 17 33  1  0
M  END
>  <Unnamed: 0>  (227) 
1331

>  <ID>  (227) 
TRAIN_1331

>  <Canonical_Smiles>  (227) 
C1CN(CC(O1)c2ccsc2)c3nccn4cnnc34

>  <Inhibition>  (227) 
20.1

>  <TDC_conf_true_inhibitor>  (227) 
0

>  <TDC_conf_non_inhibitor>  (227) 
1

>  <split>  (227) 
1

$$$$
227
     RDKit          3D

 48 51  0  0  0  0  0  0  0  0999 V2000
    7.8237   -1.0644    1.2972 C   0  0  0  0  0  0  0  0  0  0  0  0
    6.3663   -1.4945    1.2627 C   0  0  0  0  0  0  0  0  0  0  0  0
    5.4775   -0.4126    0.6556 C   0  0  0  0  0  0  0  0  0  0  0  0
    4.0175   -0.8234    0.6139 C   0  0  0  0  0  0  0  0  0  0  0  0
    3.6018   -1.9060    1.0173 O   0  0  0  0  0  0  0  0  0  0  0  0
    3.2103    0.1529    0.0656 N   0  0  0  0  0  0  0  0  0  0  0  0
    1.8622    0.0548   -0.0690 C   0  0  0  0  0  0  0  0  0  0  0  0
    1.1518    1.0218   -0.6122 N   0  0  0  0  0  0  0  0  0  0  0  0
   -0.1495    0.4948   -0.5273 N   0  0  0  0  0  0  0  0  0  0  0  0
   -1.3126    1.1239   -1.1111 C   0  0  0  0  0  0  0  0  0  0  0  0
   -2.4961    0.1970   -0.9531 C   0  0  0  0  0  0  0  0  0  0  0  0
   -2.4127   -1.0267   -0.3900 C   0  0  0  0  0  0  0  0  0  0  0  0
   -1.2359   -1.5619    0.0966 N   0  0  0  0  0  0  0  0  0  0  0  0
   -0.2140   -0.7920   -0.0118 C   0  0  0  0  0  0  0  0  0  0  0  0
    1.0953   -1.0064    0.3090 N   0  0  0  0  0  0  0  0  0  0  0  0
   -3.6372   -1.8521   -0.2500 C   0  0  0  0  0  0  0  0  0  0  0  0
   -3.8851   -2.5256    0.9557 C   0  0  0  0  0  0  0  0  0  0  0  0
   -5.0274   -3.3143    1.1147 C   0  0  0  0  0  0  0  0  0  0  0  0
   -5.9336   -3.4473    0.0653 C   0  0  0  0  0  0  0  0  0  0  0  0
   -5.6953   -2.7984   -1.1444 C   0  0  0  0  0  0  0  0  0  0  0  0
   -4.5524   -2.0092   -1.3028 C   0  0  0  0  0  0  0  0  0  0  0  0
   -1.5824    2.4831   -0.4795 C   0  0  0  0  0  0  0  0  0  0  0  0
   -1.6624    3.6326   -1.2829 C   0  0  0  0  0  0  0  0  0  0  0  0
   -1.9285    4.8806   -0.7154 C   0  0  0  0  0  0  0  0  0  0  0  0
   -2.1185    4.9970    0.6601 C   0  0  0  0  0  0  0  0  0  0  0  0
   -2.0408    3.8673    1.4715 C   0  0  0  0  0  0  0  0  0  0  0  0
   -1.7750    2.6187    0.9070 C   0  0  0  0  0  0  0  0  0  0  0  0
    8.4414   -1.8538    1.7367 H   0  0  0  0  0  0  0  0  0  0  0  0
    8.1972   -0.8625    0.2883 H   0  0  0  0  0  0  0  0  0  0  0  0
    7.9513   -0.1588    1.8989 H   0  0  0  0  0  0  0  0  0  0  0  0
    6.2761   -2.4213    0.6836 H   0  0  0  0  0  0  0  0  0  0  0  0
    6.0327   -1.7239    2.2818 H   0  0  0  0  0  0  0  0  0  0  0  0
    5.5573    0.5091    1.2441 H   0  0  0  0  0  0  0  0  0  0  0  0
    5.8017   -0.1950   -0.3690 H   0  0  0  0  0  0  0  0  0  0  0  0
    3.6083    1.0217   -0.2596 H   0  0  0  0  0  0  0  0  0  0  0  0
   -1.1341    1.2493   -2.1866 H   0  0  0  0  0  0  0  0  0  0  0  0
   -3.4485    0.5841   -1.3015 H   0  0  0  0  0  0  0  0  0  0  0  0
    1.4649   -1.8677    0.6817 H   0  0  0  0  0  0  0  0  0  0  0  0
   -3.1805   -2.4362    1.7802 H   0  0  0  0  0  0  0  0  0  0  0  0
   -5.2034   -3.8267    2.0566 H   0  0  0  0  0  0  0  0  0  0  0  0
   -6.8203   -4.0636    0.1875 H   0  0  0  0  0  0  0  0  0  0  0  0
   -6.3945   -2.9118   -1.9686 H   0  0  0  0  0  0  0  0  0  0  0  0
   -4.3757   -1.5305   -2.2625 H   0  0  0  0  0  0  0  0  0  0  0  0
   -1.5125    3.5647   -2.3581 H   0  0  0  0  0  0  0  0  0  0  0  0
   -1.9854    5.7633   -1.3471 H   0  0  0  0  0  0  0  0  0  0  0  0
   -2.3243    5.9688    1.1007 H   0  0  0  0  0  0  0  0  0  0  0  0
   -2.1856    3.9562    2.5449 H   0  0  0  0  0  0  0  0  0  0  0  0
   -1.7134    1.7452    1.5540 H   0  0  0  0  0  0  0  0  0  0  0  0
  1  2  1  0
  2  3  1  0
  3  4  1  0
  4  5  2  0
  4  6  1  0
  6  7  1  0
  7  8  2  0
  8  9  1  0
  9 10  1  0
 10 11  1  0
 11 12  2  0
 12 13  1  0
 13 14  2  0
 14 15  1  0
 12 16  1  0
 16 17  2  0
 17 18  1  0
 18 19  2  0
 19 20  1  0
 20 21  2  0
 10 22  1  0
 22 23  2  0
 23 24  1  0
 24 25  2  0
 25 26  1  0
 26 27  2  0
 15  7  1  0
 14  9  1  0
 21 16  1  0
 27 22  1  0
  1 28  1  0
  1 29  1  0
  1 30  1  0
  2 31  1  0
  2 32  1  0
  3 33  1  0
  3 34  1  0
  6 35  1  0
 10 36  1  0
 11 37  1  0
 15 38  1  0
 17 39  1  0
 18 40  1  0
 19 41  1  0
 20 42  1  0
 21 43  1  0
 23 44  1  0
 24 45  1  0
 25 46  1  0
 26 47  1  0
 27 48  1  0
M  END
>  <Unnamed: 0>  (228) 
1335

>  <ID>  (228) 
TRAIN_1335

>  <Canonical_Smiles>  (228) 
CCCC(=O)NC1=NN2C(C=C(N=C2N1)c3ccccc3)c4ccccc4

>  <Inhibition>  (228) 
63.7

>  <TDC_conf_true_inhibitor>  (228) 
1

>  <TDC_conf_non_inhibitor>  (228) 
0

>  <split>  (228) 
1

$$$$
228
     RDKit          3D

 35 37  0  0  0  0  0  0  0  0999 V2000
    3.8412    0.3040   -1.5372 C   0  0  0  0  0  0  0  0  0  0  0  0
    4.2778    0.2386   -0.1686 N   0  0  0  0  0  0  0  0  0  0  0  0
    5.1626    1.0878    0.4218 C   0  0  0  0  0  0  0  0  0  0  0  0
    5.3350    0.7414    1.6748 N   0  0  0  0  0  0  0  0  0  0  0  0
    4.5423   -0.3555    1.9147 N   0  0  0  0  0  0  0  0  0  0  0  0
    3.9037   -0.6579    0.7994 C   0  0  0  0  0  0  0  0  0  0  0  0
    2.9492   -1.7806    0.6132 C   0  0  0  0  0  0  0  0  0  0  0  0
    1.6013   -1.3010    0.8083 N   0  0  0  0  0  0  0  0  0  0  0  0
    0.7426   -1.0354   -0.2218 C   0  0  0  0  0  0  0  0  0  0  0  0
    1.0599   -1.1920   -1.3995 O   0  0  0  0  0  0  0  0  0  0  0  0
   -0.6056   -0.5245    0.1672 C   0  0  0  0  0  0  0  0  0  0  0  0
   -1.4783   -0.2296   -0.8209 C   0  0  0  0  0  0  0  0  0  0  0  0
   -2.7871    0.2656   -0.5053 C   0  0  0  0  0  0  0  0  0  0  0  0
   -3.1605    0.4440    0.7614 C   0  0  0  0  0  0  0  0  0  0  0  0
   -4.5421    0.9681    0.8979 C   0  0  0  0  0  0  0  0  0  0  0  0
   -5.0821    0.7866   -0.5292 C   0  0  0  0  0  0  0  0  0  0  0  0
   -3.8644    0.6450   -1.4582 C   0  0  0  0  0  0  0  0  0  0  0  0
   -2.3184    0.1611    1.7924 N   0  0  0  0  0  0  0  0  0  0  0  0
   -1.0401   -0.3235    1.5950 C   0  0  0  0  0  0  0  0  0  0  0  0
   -0.3017   -0.5746    2.5444 O   0  0  0  0  0  0  0  0  0  0  0  0
    2.8629    0.7885   -1.5639 H   0  0  0  0  0  0  0  0  0  0  0  0
    4.5580    0.8930   -2.1161 H   0  0  0  0  0  0  0  0  0  0  0  0
    3.7931   -0.7044   -1.9533 H   0  0  0  0  0  0  0  0  0  0  0  0
    5.6403    1.9162   -0.0816 H   0  0  0  0  0  0  0  0  0  0  0  0
    3.0584   -2.2498   -0.3688 H   0  0  0  0  0  0  0  0  0  0  0  0
    3.1284   -2.5494    1.3720 H   0  0  0  0  0  0  0  0  0  0  0  0
    1.3115   -1.0942    1.7654 H   0  0  0  0  0  0  0  0  0  0  0  0
   -1.2198   -0.3573   -1.8682 H   0  0  0  0  0  0  0  0  0  0  0  0
   -5.1396    0.4033    1.6195 H   0  0  0  0  0  0  0  0  0  0  0  0
   -4.5303    2.0241    1.1868 H   0  0  0  0  0  0  0  0  0  0  0  0
   -5.7304    1.6165   -0.8295 H   0  0  0  0  0  0  0  0  0  0  0  0
   -5.6880   -0.1279   -0.5781 H   0  0  0  0  0  0  0  0  0  0  0  0
   -4.0420   -0.1196   -2.2206 H   0  0  0  0  0  0  0  0  0  0  0  0
   -3.6300    1.5948   -1.9504 H   0  0  0  0  0  0  0  0  0  0  0  0
   -2.6074    0.2986    2.7532 H   0  0  0  0  0  0  0  0  0  0  0  0
  1  2  1  0
  2  3  1  0
  3  4  2  0
  4  5  1  0
  5  6  2  0
  6  7  1  0
  7  8  1  0
  8  9  1  0
  9 10  2  0
  9 11  1  0
 11 12  2  0
 12 13  1  0
 13 14  2  0
 14 15  1  0
 15 16  1  0
 16 17  1  0
 14 18  1  0
 18 19  1  0
 19 20  2  0
  6  2  1  0
 19 11  1  0
 17 13  1  0
  1 21  1  0
  1 22  1  0
  1 23  1  0
  3 24  1  0
  7 25  1  0
  7 26  1  0
  8 27  1  0
 12 28  1  0
 15 29  1  0
 15 30  1  0
 16 31  1  0
 16 32  1  0
 17 33  1  0
 17 34  1  0
 18 35  1  0
M  END
>  <Unnamed: 0>  (229) 
1336

>  <ID>  (229) 
TRAIN_1336

>  <Canonical_Smiles>  (229) 
Cn1cnnc1CNC(=O)C2=CC3=C(CCC3)NC2=O

>  <Inhibition>  (229) 
12.4

>  <TDC_conf_true_inhibitor>  (229) 
0

>  <TDC_conf_non_inhibitor>  (229) 
1

>  <split>  (229) 
1

$$$$
229
     RDKit          3D

 41 44  0  0  0  0  0  0  0  0999 V2000
    5.7913    0.6905    1.1722 C   0  0  0  0  0  0  0  0  0  0  0  0
    4.7802    0.5574    0.0426 C   0  0  0  0  0  0  0  0  0  0  0  0
    3.5423   -0.2268    0.4954 C   0  0  0  0  0  0  0  0  0  0  0  0
    2.5846   -0.4235   -0.6018 N   0  0  0  0  0  0  0  0  0  0  0  0
    1.8204    0.7970   -0.9430 C   0  0  0  0  0  0  0  0  0  0  0  0
    0.3935    0.8605   -0.3579 C   0  0  0  0  0  0  0  0  0  0  0  0
   -0.4436   -0.2984   -0.7715 N   0  0  0  0  0  0  0  0  0  0  0  0
    0.3658   -1.4995   -1.1053 C   0  0  0  0  0  0  0  0  0  0  0  0
    1.6687   -1.5474   -0.2868 C   0  0  0  0  0  0  0  0  0  0  0  0
   -1.6050   -0.4959   -0.0249 C   0  0  0  0  0  0  0  0  0  0  0  0
   -1.5757   -1.3374    0.9812 N   0  0  0  0  0  0  0  0  0  0  0  0
   -2.7285   -1.4413    1.6811 N   0  0  0  0  0  0  0  0  0  0  0  0
   -2.8632   -2.2429    2.7473 N   0  0  0  0  0  0  0  0  0  0  0  0
   -4.1091   -2.0576    3.1719 N   0  0  0  0  0  0  0  0  0  0  0  0
   -4.7758   -1.1421    2.3866 N   0  0  0  0  0  0  0  0  0  0  0  0
   -3.9072   -0.7726    1.4718 C   0  0  0  0  0  0  0  0  0  0  0  0
   -3.9940    0.1420    0.3658 C   0  0  0  0  0  0  0  0  0  0  0  0
   -5.1589    0.8440    0.0506 C   0  0  0  0  0  0  0  0  0  0  0  0
   -5.1752    1.6875   -1.0612 C   0  0  0  0  0  0  0  0  0  0  0  0
   -4.0360    1.8215   -1.8582 C   0  0  0  0  0  0  0  0  0  0  0  0
   -2.8690    1.1207   -1.5430 C   0  0  0  0  0  0  0  0  0  0  0  0
   -2.8410    0.2897   -0.4194 C   0  0  0  0  0  0  0  0  0  0  0  0
    5.3584    1.2240    2.0244 H   0  0  0  0  0  0  0  0  0  0  0  0
    6.6687    1.2491    0.8314 H   0  0  0  0  0  0  0  0  0  0  0  0
    6.1281   -0.2927    1.5163 H   0  0  0  0  0  0  0  0  0  0  0  0
    4.5090    1.5613   -0.3000 H   0  0  0  0  0  0  0  0  0  0  0  0
    5.2556    0.0454   -0.8028 H   0  0  0  0  0  0  0  0  0  0  0  0
    3.0625    0.2675    1.3498 H   0  0  0  0  0  0  0  0  0  0  0  0
    3.8911   -1.2062    0.8496 H   0  0  0  0  0  0  0  0  0  0  0  0
    2.3580    1.7085   -0.6612 H   0  0  0  0  0  0  0  0  0  0  0  0
    1.7414    0.8286   -2.0376 H   0  0  0  0  0  0  0  0  0  0  0  0
   -0.0866    1.7869   -0.6915 H   0  0  0  0  0  0  0  0  0  0  0  0
    0.4554    0.9003    0.7376 H   0  0  0  0  0  0  0  0  0  0  0  0
   -0.2099   -2.4192   -0.9456 H   0  0  0  0  0  0  0  0  0  0  0  0
    0.5982   -1.4692   -2.1772 H   0  0  0  0  0  0  0  0  0  0  0  0
    1.4092   -1.5470    0.7806 H   0  0  0  0  0  0  0  0  0  0  0  0
    2.1899   -2.4883   -0.4974 H   0  0  0  0  0  0  0  0  0  0  0  0
   -6.0539    0.7316    0.6595 H   0  0  0  0  0  0  0  0  0  0  0  0
   -6.0817    2.2337   -1.3134 H   0  0  0  0  0  0  0  0  0  0  0  0
   -4.0600    2.4696   -2.7316 H   0  0  0  0  0  0  0  0  0  0  0  0
   -1.9979    1.2215   -2.1843 H   0  0  0  0  0  0  0  0  0  0  0  0
  1  2  1  0
  2  3  1  0
  3  4  1  0
  4  5  1  0
  5  6  1  0
  6  7  1  0
  7  8  1  0
  8  9  1  0
  7 10  1  0
 10 11  2  0
 11 12  1  0
 12 13  1  0
 13 14  2  0
 14 15  1  0
 15 16  2  0
 16 17  1  0
 17 18  2  0
 18 19  1  0
 19 20  2  0
 20 21  1  0
 21 22  2  0
  9  4  1  0
 22 10  1  0
 16 12  1  0
 22 17  1  0
  1 23  1  0
  1 24  1  0
  1 25  1  0
  2 26  1  0
  2 27  1  0
  3 28  1  0
  3 29  1  0
  5 30  1  0
  5 31  1  0
  6 32  1  0
  6 33  1  0
  8 34  1  0
  8 35  1  0
  9 36  1  0
  9 37  1  0
 18 38  1  0
 19 39  1  0
 20 40  1  0
 21 41  1  0
M  END
>  <Unnamed: 0>  (230) 
1362

>  <ID>  (230) 
TRAIN_1362

>  <Canonical_Smiles>  (230) 
CCCN1CCN(CC1)c2nn3nnnc3c4ccccc24

>  <Inhibition>  (230) 
0.5

>  <TDC_conf_true_inhibitor>  (230) 
0

>  <TDC_conf_non_inhibitor>  (230) 
1

>  <split>  (230) 
1

$$$$
230
     RDKit          3D

 33 36  0  0  0  0  0  0  0  0999 V2000
    4.9682   -0.7951   -2.0305 C   0  0  0  0  0  0  0  0  0  0  0  0
    4.3008   -0.8643   -0.7548 N   0  0  0  0  0  0  0  0  0  0  0  0
    4.8451   -1.6147    0.2417 N   0  0  0  0  0  0  0  0  0  0  0  0
    3.9762   -1.4891    1.2562 C   0  0  0  0  0  0  0  0  0  0  0  0
    2.9169   -0.6694    0.9011 C   0  0  0  0  0  0  0  0  0  0  0  0
    3.1236   -0.2589   -0.3961 C   0  0  0  0  0  0  0  0  0  0  0  0
    2.3491    0.5639   -1.1690 N   0  0  0  0  0  0  0  0  0  0  0  0
    1.2599    1.0203   -0.5910 C   0  0  0  0  0  0  0  0  0  0  0  0
    0.8963    0.7031    0.7271 N   0  0  0  0  0  0  0  0  0  0  0  0
   -0.1667    1.0784    1.5098 C   0  0  0  0  0  0  0  0  0  0  0  0
   -1.2577    1.9874    1.0828 C   0  0  0  0  0  0  0  0  0  0  0  0
   -1.7578    1.5620   -0.1876 O   0  0  0  0  0  0  0  0  0  0  0  0
   -2.8191    0.6995   -0.2017 C   0  0  0  0  0  0  0  0  0  0  0  0
   -3.2001   -0.1464    0.8414 C   0  0  0  0  0  0  0  0  0  0  0  0
   -4.2967   -1.0018    0.6837 C   0  0  0  0  0  0  0  0  0  0  0  0
   -5.0048   -1.0168   -0.5162 C   0  0  0  0  0  0  0  0  0  0  0  0
   -6.3454   -2.0752   -0.7100 Cl  0  0  0  0  0  0  0  0  0  0  0  0
   -4.6239   -0.1849   -1.5643 C   0  0  0  0  0  0  0  0  0  0  0  0
   -3.5277    0.6668   -1.4068 C   0  0  0  0  0  0  0  0  0  0  0  0
   -0.0390    0.5129    2.7001 N   0  0  0  0  0  0  0  0  0  0  0  0
    1.1141   -0.2493    2.7049 N   0  0  0  0  0  0  0  0  0  0  0  0
    1.6533   -0.1170    1.5223 C   0  0  0  0  0  0  0  0  0  0  0  0
    5.9488   -0.3366   -1.8826 H   0  0  0  0  0  0  0  0  0  0  0  0
    4.3788   -0.1974   -2.7290 H   0  0  0  0  0  0  0  0  0  0  0  0
    5.0753   -1.8119   -2.4161 H   0  0  0  0  0  0  0  0  0  0  0  0
    4.1715   -1.9978    2.1914 H   0  0  0  0  0  0  0  0  0  0  0  0
    0.6014    1.6903   -1.1648 H   0  0  0  0  0  0  0  0  0  0  0  0
   -2.0510    2.0737    1.8340 H   0  0  0  0  0  0  0  0  0  0  0  0
   -0.8473    2.9943    0.9451 H   0  0  0  0  0  0  0  0  0  0  0  0
   -2.6588   -0.1835    1.7829 H   0  0  0  0  0  0  0  0  0  0  0  0
   -4.5846   -1.6612    1.4987 H   0  0  0  0  0  0  0  0  0  0  0  0
   -5.1684   -0.1954   -2.5040 H   0  0  0  0  0  0  0  0  0  0  0  0
   -3.2302    1.3143   -2.2280 H   0  0  0  0  0  0  0  0  0  0  0  0
  1  2  1  0
  2  3  1  0
  3  4  2  0
  4  5  1  0
  5  6  2  0
  6  7  1  0
  7  8  2  0
  8  9  1  0
  9 10  1  0
 10 11  1  0
 11 12  1  0
 12 13  1  0
 13 14  2  0
 14 15  1  0
 15 16  2  0
 16 17  1  0
 16 18  1  0
 18 19  2  0
 10 20  2  0
 20 21  1  0
 21 22  2  0
  6  2  1  0
 22  5  1  0
 22  9  1  0
 19 13  1  0
  1 23  1  0
  1 24  1  0
  1 25  1  0
  4 26  1  0
  8 27  1  0
 11 28  1  0
 11 29  1  0
 14 30  1  0
 15 31  1  0
 18 32  1  0
 19 33  1  0
M  END
>  <Unnamed: 0>  (231) 
1378

>  <ID>  (231) 
TRAIN_1378

>  <Canonical_Smiles>  (231) 
Cn1ncc2c1ncn3c(COc4ccc(Cl)cc4)nnc23

>  <Inhibition>  (231) 
0.5

>  <TDC_conf_true_inhibitor>  (231) 
0

>  <TDC_conf_non_inhibitor>  (231) 
1

>  <split>  (231) 
1

$$$$
231
     RDKit          3D

 56 58  0  0  0  0  0  0  0  0999 V2000
    8.5078   -2.6603    0.2820 C   0  0  0  0  0  0  0  0  0  0  0  0
    7.4631   -1.6034    0.3310 C   0  0  0  0  0  0  0  0  0  0  0  0
    6.4413   -1.5295   -0.5012 N   0  0  0  0  0  0  0  0  0  0  0  0
    5.7406   -0.3873   -0.0572 N   0  0  0  0  0  0  0  0  0  0  0  0
    6.3536    0.1853    1.0369 C   0  0  0  0  0  0  0  0  0  0  0  0
    5.9196    1.2229    1.6562 N   0  0  0  0  0  0  0  0  0  0  0  0
    4.7582    1.7903    1.1604 C   0  0  0  0  0  0  0  0  0  0  0  0
    4.0643    1.3163    0.0972 C   0  0  0  0  0  0  0  0  0  0  0  0
    2.8183    1.9244   -0.4999 C   0  0  0  0  0  0  0  0  0  0  0  0
    1.5564    1.2019   -0.0304 C   0  0  0  0  0  0  0  0  0  0  0  0
    0.3017    1.8325   -0.6005 C   0  0  0  0  0  0  0  0  0  0  0  0
    0.2964    2.9053   -1.1915 O   0  0  0  0  0  0  0  0  0  0  0  0
   -0.8235    1.0873   -0.3496 N   0  0  0  0  0  0  0  0  0  0  0  0
   -2.1955    1.4269   -0.7793 C   0  0  0  0  0  0  0  0  0  0  0  0
   -2.2725    1.5122   -2.3146 C   0  0  0  0  0  0  0  0  0  0  0  0
   -2.6468    2.7573   -0.1515 C   0  0  0  0  0  0  0  0  0  0  0  0
   -3.1148    0.3151   -0.2897 C   0  0  0  0  0  0  0  0  0  0  0  0
   -2.7085   -0.6457    0.5591 N   0  0  0  0  0  0  0  0  0  0  0  0
   -3.8520   -1.4213    0.7408 O   0  0  0  0  0  0  0  0  0  0  0  0
   -4.8359   -0.8564   -0.0211 C   0  0  0  0  0  0  0  0  0  0  0  0
   -4.4347    0.2179   -0.6630 N   0  0  0  0  0  0  0  0  0  0  0  0
   -6.1991   -1.4884    0.0127 C   0  0  0  0  0  0  0  0  0  0  0  0
   -6.1223   -2.9745    0.4075 C   0  0  0  0  0  0  0  0  0  0  0  0
   -7.0704   -0.7385    1.0329 C   0  0  0  0  0  0  0  0  0  0  0  0
   -6.8478   -1.3878   -1.3797 C   0  0  0  0  0  0  0  0  0  0  0  0
    4.5728    0.0843   -0.5997 C   0  0  0  0  0  0  0  0  0  0  0  0
    3.9569   -0.4114   -1.5387 O   0  0  0  0  0  0  0  0  0  0  0  0
    4.3224    3.0009    1.9508 C   0  0  0  0  0  0  0  0  0  0  0  0
    7.4409   -0.5954    1.2565 N   0  0  0  0  0  0  0  0  0  0  0  0
    9.4937   -2.1953    0.2000 H   0  0  0  0  0  0  0  0  0  0  0  0
    8.4676   -3.2494    1.2011 H   0  0  0  0  0  0  0  0  0  0  0  0
    8.3450   -3.3182   -0.5759 H   0  0  0  0  0  0  0  0  0  0  0  0
    2.7533    2.9924   -0.2627 H   0  0  0  0  0  0  0  0  0  0  0  0
    2.8799    1.8955   -1.5960 H   0  0  0  0  0  0  0  0  0  0  0  0
    1.4820    1.2407    1.0632 H   0  0  0  0  0  0  0  0  0  0  0  0
    1.5834    0.1483   -0.3319 H   0  0  0  0  0  0  0  0  0  0  0  0
   -0.7243    0.2008    0.1353 H   0  0  0  0  0  0  0  0  0  0  0  0
   -1.9396    0.5755   -2.7783 H   0  0  0  0  0  0  0  0  0  0  0  0
   -3.2973    1.7018   -2.6557 H   0  0  0  0  0  0  0  0  0  0  0  0
   -1.6448    2.3161   -2.7125 H   0  0  0  0  0  0  0  0  0  0  0  0
   -2.5702    2.7222    0.9411 H   0  0  0  0  0  0  0  0  0  0  0  0
   -2.0413    3.6017   -0.4939 H   0  0  0  0  0  0  0  0  0  0  0  0
   -3.6907    2.9820   -0.4010 H   0  0  0  0  0  0  0  0  0  0  0  0
   -7.1142   -3.4416    0.3919 H   0  0  0  0  0  0  0  0  0  0  0  0
   -5.4784   -3.5359   -0.2805 H   0  0  0  0  0  0  0  0  0  0  0  0
   -5.7180   -3.1023    1.4173 H   0  0  0  0  0  0  0  0  0  0  0  0
   -7.1614    0.3234    0.7759 H   0  0  0  0  0  0  0  0  0  0  0  0
   -8.0816   -1.1589    1.0771 H   0  0  0  0  0  0  0  0  0  0  0  0
   -6.6405   -0.7953    2.0408 H   0  0  0  0  0  0  0  0  0  0  0  0
   -6.9521   -0.3441   -1.7018 H   0  0  0  0  0  0  0  0  0  0  0  0
   -6.2452   -1.9056   -2.1355 H   0  0  0  0  0  0  0  0  0  0  0  0
   -7.8477   -1.8362   -1.3850 H   0  0  0  0  0  0  0  0  0  0  0  0
    4.4401    2.8130    3.0244 H   0  0  0  0  0  0  0  0  0  0  0  0
    3.2733    3.2658    1.7982 H   0  0  0  0  0  0  0  0  0  0  0  0
    4.9416    3.8642    1.6858 H   0  0  0  0  0  0  0  0  0  0  0  0
    8.0971   -0.4398    2.0019 H   0  0  0  0  0  0  0  0  0  0  0  0
  1  2  1  0
  2  3  2  0
  3  4  1  0
  4  5  1  0
  5  6  2  0
  6  7  1  0
  7  8  2  0
  8  9  1  0
  9 10  1  0
 10 11  1  0
 11 12  2  0
 11 13  1  0
 13 14  1  0
 14 15  1  0
 14 16  1  0
 14 17  1  0
 17 18  2  0
 18 19  1  0
 19 20  1  0
 20 21  2  0
 20 22  1  0
 22 23  1  0
 22 24  1  0
 22 25  1  0
  8 26  1  0
 26 27  2  0
  7 28  1  0
  5 29  1  0
 29  2  1  0
 26  4  1  0
 21 17  1  0
  1 30  1  0
  1 31  1  0
  1 32  1  0
  9 33  1  0
  9 34  1  0
 10 35  1  0
 10 36  1  0
 13 37  1  0
 15 38  1  0
 15 39  1  0
 15 40  1  0
 16 41  1  0
 16 42  1  0
 16 43  1  0
 23 44  1  0
 23 45  1  0
 23 46  1  0
 24 47  1  0
 24 48  1  0
 24 49  1  0
 25 50  1  0
 25 51  1  0
 25 52  1  0
 28 53  1  0
 28 54  1  0
 28 55  1  0
 29 56  1  0
M  END
>  <Unnamed: 0>  (232) 
1379

>  <ID>  (232) 
TRAIN_1379

>  <Canonical_Smiles>  (232) 
CC1=NN2C(=NC(=C(CCC(=O)NC(C)(C)c3noc(n3)C(C)(C)C)C2=O)C)N1

>  <Inhibition>  (232) 
0.5

>  <TDC_conf_true_inhibitor>  (232) 
0

>  <TDC_conf_non_inhibitor>  (232) 
1

>  <split>  (232) 
1

$$$$
232
     RDKit          3D

 46 49  0  0  0  0  0  0  0  0999 V2000
    4.3574    2.4563    1.6246 C   0  0  0  0  0  0  0  0  0  0  0  0
    4.2959    1.1122    1.0496 N   0  0  0  0  0  0  0  0  0  0  0  0
    3.3643    0.2661    1.8257 C   0  0  0  0  0  0  0  0  0  0  0  0
    2.7813   -0.9154    1.0275 C   0  0  0  0  0  0  0  0  0  0  0  0
    2.0621   -0.4637   -0.1668 N   0  0  0  0  0  0  0  0  0  0  0  0
    2.4940    0.8183   -0.7309 C   0  0  0  0  0  0  0  0  0  0  0  0
    3.9622    1.1443   -0.3867 C   0  0  0  0  0  0  0  0  0  0  0  0
    1.0149   -1.2399   -0.6506 C   0  0  0  0  0  0  0  0  0  0  0  0
    0.7670   -2.3507   -0.1695 O   0  0  0  0  0  0  0  0  0  0  0  0
    0.2013   -0.6811   -1.8336 C   0  0  0  0  0  0  0  0  0  0  0  0
   -1.1972   -1.1614   -1.8007 N   0  0  0  0  0  0  0  0  0  0  0  0
   -1.6547   -2.3367   -2.4226 C   0  0  0  0  0  0  0  0  0  0  0  0
   -2.9071   -2.7985   -2.2259 C   0  0  0  0  0  0  0  0  0  0  0  0
   -3.8410   -2.0862   -1.3181 C   0  0  0  0  0  0  0  0  0  0  0  0
   -4.9937   -2.4438   -1.1135 O   0  0  0  0  0  0  0  0  0  0  0  0
   -3.2883   -0.9616   -0.7097 N   0  0  0  0  0  0  0  0  0  0  0  0
   -3.9382   -0.1691    0.1771 N   0  0  0  0  0  0  0  0  0  0  0  0
   -2.9913    0.7318    0.4748 C   0  0  0  0  0  0  0  0  0  0  0  0
   -1.7984    0.5673   -0.1908 N   0  0  0  0  0  0  0  0  0  0  0  0
   -2.0107   -0.4991   -0.9247 C   0  0  0  0  0  0  0  0  0  0  0  0
   -3.2305    1.8886    1.5059 C   0  0  0  0  0  0  0  0  0  0  0  0
   -4.4135    2.0778    2.1904 C   0  0  0  0  0  0  0  0  0  0  0  0
   -4.3532    3.2042    3.0624 C   0  0  0  0  0  0  0  0  0  0  0  0
   -3.1259    3.8301    3.0090 C   0  0  0  0  0  0  0  0  0  0  0  0
   -2.0569    3.0565    1.9138 S   0  0  0  0  0  0  0  0  0  0  0  0
   -0.7238   -3.1067   -3.3254 C   0  0  0  0  0  0  0  0  0  0  0  0
    5.1394    3.0471    1.1357 H   0  0  0  0  0  0  0  0  0  0  0  0
    4.6189    2.4114    2.6884 H   0  0  0  0  0  0  0  0  0  0  0  0
    3.4060    2.9924    1.5238 H   0  0  0  0  0  0  0  0  0  0  0  0
    3.8903   -0.1197    2.7065 H   0  0  0  0  0  0  0  0  0  0  0  0
    2.5188    0.8671    2.1893 H   0  0  0  0  0  0  0  0  0  0  0  0
    2.1075   -1.4927    1.6714 H   0  0  0  0  0  0  0  0  0  0  0  0
    3.5792   -1.5908    0.6936 H   0  0  0  0  0  0  0  0  0  0  0  0
    2.3765    0.7969   -1.8203 H   0  0  0  0  0  0  0  0  0  0  0  0
    1.8276    1.5932   -0.3300 H   0  0  0  0  0  0  0  0  0  0  0  0
    4.5944    0.3895   -0.8748 H   0  0  0  0  0  0  0  0  0  0  0  0
    4.2424    2.1006   -0.8446 H   0  0  0  0  0  0  0  0  0  0  0  0
    0.2010    0.4141   -1.8213 H   0  0  0  0  0  0  0  0  0  0  0  0
    0.7082   -0.9780   -2.7583 H   0  0  0  0  0  0  0  0  0  0  0  0
   -3.2919   -3.6993   -2.6883 H   0  0  0  0  0  0  0  0  0  0  0  0
   -5.2795    1.4371    2.0702 H   0  0  0  0  0  0  0  0  0  0  0  0
   -5.1679    3.5363    3.6948 H   0  0  0  0  0  0  0  0  0  0  0  0
   -2.8042    4.7033    3.5597 H   0  0  0  0  0  0  0  0  0  0  0  0
    0.1661   -3.4338   -2.7765 H   0  0  0  0  0  0  0  0  0  0  0  0
   -1.1979   -4.0044   -3.7389 H   0  0  0  0  0  0  0  0  0  0  0  0
   -0.4112   -2.4869   -4.1718 H   0  0  0  0  0  0  0  0  0  0  0  0
  1  2  1  0
  2  3  1  0
  3  4  1  0
  4  5  1  0
  5  6  1  0
  6  7  1  0
  5  8  1  0
  8  9  2  0
  8 10  1  0
 10 11  1  0
 11 12  1  0
 12 13  2  0
 13 14  1  0
 14 15  2  0
 14 16  1  0
 16 17  1  0
 17 18  2  0
 18 19  1  0
 19 20  2  0
 18 21  1  0
 21 22  2  0
 22 23  1  0
 23 24  2  0
 24 25  1  0
 12 26  1  0
  7  2  1  0
 20 11  1  0
 20 16  1  0
 25 21  1  0
  1 27  1  0
  1 28  1  0
  1 29  1  0
  3 30  1  0
  3 31  1  0
  4 32  1  0
  4 33  1  0
  6 34  1  0
  6 35  1  0
  7 36  1  0
  7 37  1  0
 10 38  1  0
 10 39  1  0
 13 40  1  0
 22 41  1  0
 23 42  1  0
 24 43  1  0
 26 44  1  0
 26 45  1  0
 26 46  1  0
M  END
>  <Unnamed: 0>  (233) 
1393

>  <ID>  (233) 
TRAIN_1393

>  <Canonical_Smiles>  (233) 
CN1CCN(CC1)C(=O)CN2C(=CC(=O)n3nc(nc23)c4cccs4)C

>  <Inhibition>  (233) 
11.2

>  <TDC_conf_true_inhibitor>  (233) 
0

>  <TDC_conf_non_inhibitor>  (233) 
1

>  <split>  (233) 
1

$$$$
233
     RDKit          3D

 44 45  0  0  0  0  0  0  0  0999 V2000
   -4.8349   -4.3766    1.5170 C   0  0  0  0  0  0  0  0  0  0  0  0
   -3.9547   -3.3513    1.0530 O   0  0  0  0  0  0  0  0  0  0  0  0
   -4.5190   -2.1185    1.0168 C   0  0  0  0  0  0  0  0  0  0  0  0
   -5.6684   -1.8512    1.3266 O   0  0  0  0  0  0  0  0  0  0  0  0
   -3.5370   -1.1039    0.5462 C   0  0  0  0  0  0  0  0  0  0  0  0
   -2.2266   -1.4426    0.1781 C   0  0  0  0  0  0  0  0  0  0  0  0
   -1.3237   -0.4604   -0.2522 C   0  0  0  0  0  0  0  0  0  0  0  0
   -0.0288   -0.8969   -0.6054 N   0  0  0  0  0  0  0  0  0  0  0  0
    1.0432   -0.1219   -1.0206 C   0  0  0  0  0  0  0  0  0  0  0  0
    1.0388    1.0937   -1.1797 O   0  0  0  0  0  0  0  0  0  0  0  0
    2.2643   -0.9679   -1.3497 C   0  0  0  0  0  0  0  0  0  0  0  0
    3.5460   -0.1398   -1.2590 C   0  0  0  0  0  0  0  0  0  0  0  0
    4.6663   -0.8634   -1.9330 N   0  0  0  0  0  0  0  0  0  0  0  0
    5.9020   -0.0511   -1.8915 C   0  0  0  0  0  0  0  0  0  0  0  0
    6.0055    0.9487   -0.7186 C   0  0  0  0  0  0  0  0  0  0  0  0
    5.2141    0.5360    0.4181 N   0  0  0  0  0  0  0  0  0  0  0  0
    3.9279    0.0821    0.2277 C   0  0  0  0  0  0  0  0  0  0  0  0
    3.1867   -0.1357    1.1793 O   0  0  0  0  0  0  0  0  0  0  0  0
   -1.7445    0.8706   -0.3096 C   0  0  0  0  0  0  0  0  0  0  0  0
   -3.0538    1.2215    0.0564 C   0  0  0  0  0  0  0  0  0  0  0  0
   -3.9484    0.2309    0.4784 C   0  0  0  0  0  0  0  0  0  0  0  0
   -3.5433    2.6253    0.0046 C   0  0  0  0  0  0  0  0  0  0  0  0
   -4.7227    2.9272    0.0963 O   0  0  0  0  0  0  0  0  0  0  0  0
   -2.5093    3.4900   -0.1307 O   0  0  0  0  0  0  0  0  0  0  0  0
   -2.8948    4.8647   -0.1601 C   0  0  0  0  0  0  0  0  0  0  0  0
   -4.2741   -5.3149    1.5551 H   0  0  0  0  0  0  0  0  0  0  0  0
   -5.1952   -4.1475    2.5252 H   0  0  0  0  0  0  0  0  0  0  0  0
   -5.6739   -4.4997    0.8259 H   0  0  0  0  0  0  0  0  0  0  0  0
   -1.9070   -2.4805    0.2306 H   0  0  0  0  0  0  0  0  0  0  0  0
    0.1501   -1.8891   -0.5002 H   0  0  0  0  0  0  0  0  0  0  0  0
    2.1192   -1.3354   -2.3736 H   0  0  0  0  0  0  0  0  0  0  0  0
    2.3134   -1.8377   -0.6838 H   0  0  0  0  0  0  0  0  0  0  0  0
    3.4102    0.8377   -1.7380 H   0  0  0  0  0  0  0  0  0  0  0  0
    4.8385   -1.7160   -1.3955 H   0  0  0  0  0  0  0  0  0  0  0  0
    6.7501   -0.7451   -1.8458 H   0  0  0  0  0  0  0  0  0  0  0  0
    6.0084    0.4945   -2.8370 H   0  0  0  0  0  0  0  0  0  0  0  0
    5.6299    1.9299   -1.0296 H   0  0  0  0  0  0  0  0  0  0  0  0
    7.0439    1.0621   -0.3928 H   0  0  0  0  0  0  0  0  0  0  0  0
    5.4613    0.8002    1.3640 H   0  0  0  0  0  0  0  0  0  0  0  0
   -1.0685    1.6526   -0.6411 H   0  0  0  0  0  0  0  0  0  0  0  0
   -4.9651    0.5029    0.7614 H   0  0  0  0  0  0  0  0  0  0  0  0
   -3.4258    5.0863   -1.0910 H   0  0  0  0  0  0  0  0  0  0  0  0
   -3.5123    5.1174    0.7078 H   0  0  0  0  0  0  0  0  0  0  0  0
   -1.9877    5.4727   -0.1212 H   0  0  0  0  0  0  0  0  0  0  0  0
  1  2  1  0
  2  3  1  0
  3  4  2  0
  3  5  1  0
  5  6  2  0
  6  7  1  0
  7  8  1  0
  8  9  1  0
  9 10  2  0
  9 11  1  0
 11 12  1  0
 12 13  1  0
 13 14  1  0
 14 15  1  0
 15 16  1  0
 16 17  1  0
 17 18  2  0
  7 19  2  0
 19 20  1  0
 20 21  2  0
 20 22  1  0
 22 23  2  0
 22 24  1  0
 24 25  1  0
 21  5  1  0
 17 12  1  0
  1 26  1  0
  1 27  1  0
  1 28  1  0
  6 29  1  0
  8 30  1  0
 11 31  1  0
 11 32  1  0
 12 33  1  0
 13 34  1  0
 14 35  1  0
 14 36  1  0
 15 37  1  0
 15 38  1  0
 16 39  1  0
 19 40  1  0
 21 41  1  0
 25 42  1  0
 25 43  1  0
 25 44  1  0
M  END
>  <Unnamed: 0>  (234) 
1409

>  <ID>  (234) 
TRAIN_1409

>  <Canonical_Smiles>  (234) 
COC(=O)c1cc(NC(=O)CC2NCCNC2=O)cc(c1)C(=O)OC

>  <Inhibition>  (234) 
0.5

>  <TDC_conf_true_inhibitor>  (234) 
0

>  <TDC_conf_non_inhibitor>  (234) 
1

>  <split>  (234) 
1

$$$$
234
     RDKit          3D

 42 44  0  0  0  0  0  0  0  0999 V2000
   -1.0137   -2.1387   -1.0202 C   0  0  0  0  0  0  0  0  0  0  0  0
   -0.6827   -0.7647   -0.5864 N   0  0  0  0  0  0  0  0  0  0  0  0
    0.7831   -0.4566   -0.6363 C   0  0  0  0  0  0  0  0  0  0  0  0
    0.9857    0.9575   -1.2161 C   0  0  0  0  0  0  0  0  0  0  0  0
    1.7492    1.9343   -0.3283 C   0  0  0  0  0  0  0  0  0  0  0  0
    3.1899    1.5908   -0.2069 C   0  0  0  0  0  0  0  0  0  0  0  0
    4.1907    2.3991   -0.4879 N   0  0  0  0  0  0  0  0  0  0  0  0
    5.3637    1.7339   -0.2509 N   0  0  0  0  0  0  0  0  0  0  0  0
    5.0679    0.5250    0.1719 C   0  0  0  0  0  0  0  0  0  0  0  0
    6.0347   -0.5339    0.5393 C   0  0  0  0  0  0  0  0  0  0  0  0
    3.6982    0.3901    0.2129 N   0  0  0  0  0  0  0  0  0  0  0  0
    3.0005   -0.8187    0.5831 C   0  0  0  0  0  0  0  0  0  0  0  0
    1.4794   -0.7582    0.6993 C   0  0  0  0  0  0  0  0  0  0  0  0
   -1.5994   -0.1787    0.7252 S   0  0  0  0  0  6  0  0  0  0  0  0
   -1.2003    1.1868    0.9966 O   0  0  0  0  0  0  0  0  0  0  0  0
   -1.5817   -1.1862    1.7668 O   0  0  0  0  0  0  0  0  0  0  0  0
   -3.2808   -0.0410    0.2762 C   0  0  0  0  0  0  0  0  0  0  0  0
   -4.2836    0.4830    1.0698 C   0  0  0  0  0  0  0  0  0  0  0  0
   -5.4137    0.3989    0.3092 N   0  0  0  0  0  0  0  0  0  0  0  0
   -6.7298    0.8335    0.7031 C   0  0  0  0  0  0  0  0  0  0  0  0
   -5.0777   -0.1627   -0.8891 C   0  0  0  0  0  0  0  0  0  0  0  0
   -3.7953   -0.4465   -0.9475 N   0  0  0  0  0  0  0  0  0  0  0  0
   -2.0784   -2.3594   -0.9210 H   0  0  0  0  0  0  0  0  0  0  0  0
   -0.4516   -2.8755   -0.4388 H   0  0  0  0  0  0  0  0  0  0  0  0
   -0.7606   -2.2551   -2.0789 H   0  0  0  0  0  0  0  0  0  0  0  0
    1.2149   -1.1458   -1.3772 H   0  0  0  0  0  0  0  0  0  0  0  0
    0.0175    1.4071   -1.4713 H   0  0  0  0  0  0  0  0  0  0  0  0
    1.5155    0.8627   -2.1746 H   0  0  0  0  0  0  0  0  0  0  0  0
    1.6759    2.9312   -0.7819 H   0  0  0  0  0  0  0  0  0  0  0  0
    1.2975    2.0263    0.6640 H   0  0  0  0  0  0  0  0  0  0  0  0
    5.9141   -1.4099   -0.1054 H   0  0  0  0  0  0  0  0  0  0  0  0
    7.0614   -0.1714    0.4272 H   0  0  0  0  0  0  0  0  0  0  0  0
    5.8987   -0.8417    1.5807 H   0  0  0  0  0  0  0  0  0  0  0  0
    3.2854   -1.5837   -0.1494 H   0  0  0  0  0  0  0  0  0  0  0  0
    3.4047   -1.1249    1.5557 H   0  0  0  0  0  0  0  0  0  0  0  0
    1.1946   -0.0430    1.4786 H   0  0  0  0  0  0  0  0  0  0  0  0
    1.1449   -1.7389    1.0620 H   0  0  0  0  0  0  0  0  0  0  0  0
   -4.2677    0.8953    2.0695 H   0  0  0  0  0  0  0  0  0  0  0  0
   -7.3705    0.9032   -0.1796 H   0  0  0  0  0  0  0  0  0  0  0  0
   -7.1350    0.1022    1.4069 H   0  0  0  0  0  0  0  0  0  0  0  0
   -6.6482    1.8155    1.1764 H   0  0  0  0  0  0  0  0  0  0  0  0
   -5.7973   -0.3411   -1.6785 H   0  0  0  0  0  0  0  0  0  0  0  0
  1  2  1  0
  2  3  1  0
  3  4  1  0
  4  5  1  0
  5  6  1  0
  6  7  2  0
  7  8  1  0
  8  9  2  0
  9 10  1  0
  9 11  1  0
 11 12  1  0
 12 13  1  0
  2 14  1  0
 14 15  2  0
 14 16  2  0
 14 17  1  0
 17 18  2  0
 18 19  1  0
 19 20  1  0
 19 21  1  0
 21 22  2  0
 13  3  1  0
 11  6  1  0
 22 17  1  0
  1 23  1  0
  1 24  1  0
  1 25  1  0
  3 26  1  0
  4 27  1  0
  4 28  1  0
  5 29  1  0
  5 30  1  0
 10 31  1  0
 10 32  1  0
 10 33  1  0
 12 34  1  0
 12 35  1  0
 13 36  1  0
 13 37  1  0
 18 38  1  0
 20 39  1  0
 20 40  1  0
 20 41  1  0
 21 42  1  0
M  END
>  <Unnamed: 0>  (235) 
1429

>  <ID>  (235) 
TRAIN_1429

>  <Canonical_Smiles>  (235) 
CN(C1CCc2nnc(C)n2CC1)S(=O)(=O)c3cn(C)cn3

>  <Inhibition>  (235) 
21.0

>  <TDC_conf_true_inhibitor>  (235) 
0

>  <TDC_conf_non_inhibitor>  (235) 
1

>  <split>  (235) 
1

$$$$
235
     RDKit          3D

 39 42  0  0  0  0  0  0  0  0999 V2000
   -3.4586   -0.6551    2.6370 C   0  0  0  0  0  0  0  0  0  0  0  0
   -2.7936   -0.0396    1.5124 N   0  0  0  0  0  0  0  0  0  0  0  0
   -1.4952    0.2940    1.6191 N   0  0  0  0  0  0  0  0  0  0  0  0
   -1.1892    0.8530    0.4322 C   0  0  0  0  0  0  0  0  0  0  0  0
    0.1363    1.4225    0.1057 C   0  0  0  0  0  0  0  0  0  0  0  0
    0.2230    2.3337   -0.7223 O   0  0  0  0  0  0  0  0  0  0  0  0
    1.3076    0.9140    0.7149 N   0  0  0  0  0  0  0  0  0  0  0  0
    1.4162   -0.4394    1.2810 C   0  0  0  0  0  0  0  0  0  0  0  0
    1.7373   -1.4852    0.2079 C   0  0  0  0  0  0  0  0  0  0  0  0
    3.1171   -1.3965   -0.2377 N   0  0  0  0  0  0  0  0  0  0  0  0
    4.0265   -2.4190   -0.1826 C   0  0  0  0  0  0  0  0  0  0  0  0
    3.8621   -3.5518    0.2355 O   0  0  0  0  0  0  0  0  0  0  0  0
    5.2003   -1.8919   -0.7029 N   0  0  0  0  0  0  0  0  0  0  0  0
    5.0228   -0.5862   -1.0658 N   0  0  0  0  0  0  0  0  0  0  0  0
    3.7760   -0.3489   -0.7689 C   0  0  0  0  0  0  0  0  0  0  0  0
    3.1205    0.9797   -0.9884 C   0  0  0  0  0  0  0  0  0  0  0  0
    2.5729    1.5395    0.3209 C   0  0  0  0  0  0  0  0  0  0  0  0
   -2.3372    0.8739   -0.4247 C   0  0  0  0  0  0  0  0  0  0  0  0
   -2.6137    1.3297   -1.7301 C   0  0  0  0  0  0  0  0  0  0  0  0
   -3.8996    1.1631   -2.2562 C   0  0  0  0  0  0  0  0  0  0  0  0
   -4.9028    0.5578   -1.5027 C   0  0  0  0  0  0  0  0  0  0  0  0
   -4.6542    0.1022   -0.2043 C   0  0  0  0  0  0  0  0  0  0  0  0
   -3.3592    0.2741    0.3055 C   0  0  0  0  0  0  0  0  0  0  0  0
   -4.0587   -1.4942    2.2767 H   0  0  0  0  0  0  0  0  0  0  0  0
   -2.7106   -1.0204    3.3460 H   0  0  0  0  0  0  0  0  0  0  0  0
   -4.0921    0.0982    3.1111 H   0  0  0  0  0  0  0  0  0  0  0  0
    2.1979   -0.4197    2.0504 H   0  0  0  0  0  0  0  0  0  0  0  0
    0.5025   -0.7359    1.7875 H   0  0  0  0  0  0  0  0  0  0  0  0
    1.0943   -1.3491   -0.6688 H   0  0  0  0  0  0  0  0  0  0  0  0
    1.5614   -2.4885    0.6101 H   0  0  0  0  0  0  0  0  0  0  0  0
    6.0776   -2.3813   -0.8143 H   0  0  0  0  0  0  0  0  0  0  0  0
    3.8735    1.6677   -1.3894 H   0  0  0  0  0  0  0  0  0  0  0  0
    2.3358    0.8643   -1.7435 H   0  0  0  0  0  0  0  0  0  0  0  0
    3.2886    1.4151    1.1423 H   0  0  0  0  0  0  0  0  0  0  0  0
    2.4088    2.6175    0.2073 H   0  0  0  0  0  0  0  0  0  0  0  0
   -1.8399    1.8106   -2.3236 H   0  0  0  0  0  0  0  0  0  0  0  0
   -4.1153    1.5133   -3.2629 H   0  0  0  0  0  0  0  0  0  0  0  0
   -5.8969    0.4415   -1.9295 H   0  0  0  0  0  0  0  0  0  0  0  0
   -5.4424   -0.3626    0.3791 H   0  0  0  0  0  0  0  0  0  0  0  0
  1  2  1  0
  2  3  1  0
  3  4  2  0
  4  5  1  0
  5  6  2  0
  5  7  1  0
  7  8  1  0
  8  9  1  0
  9 10  1  0
 10 11  1  0
 11 12  2  0
 11 13  1  0
 13 14  1  0
 14 15  2  0
 15 16  1  0
 16 17  1  0
  4 18  1  0
 18 19  2  0
 19 20  1  0
 20 21  2  0
 21 22  1  0
 22 23  2  0
 23  2  1  0
 17  7  1  0
 15 10  1  0
 23 18  1  0
  1 24  1  0
  1 25  1  0
  1 26  1  0
  8 27  1  0
  8 28  1  0
  9 29  1  0
  9 30  1  0
 13 31  1  0
 16 32  1  0
 16 33  1  0
 17 34  1  0
 17 35  1  0
 19 36  1  0
 20 37  1  0
 21 38  1  0
 22 39  1  0
M  END
>  <Unnamed: 0>  (236) 
1439

>  <ID>  (236) 
TRAIN_1439

>  <Canonical_Smiles>  (236) 
Cn1nc(C(=O)N2CCN3C(=O)NN=C3CC2)c4ccccc14

>  <Inhibition>  (236) 
0.5

>  <TDC_conf_true_inhibitor>  (236) 
0

>  <TDC_conf_non_inhibitor>  (236) 
1

>  <split>  (236) 
1

$$$$
236
     RDKit          3D

 47 49  0  0  0  0  0  0  0  0999 V2000
   -3.9028   -2.6036   -1.7167 C   0  0  0  0  0  0  0  0  0  0  0  0
   -3.3369   -1.6427   -0.8343 O   0  0  0  0  0  0  0  0  0  0  0  0
   -4.1720   -0.6266   -0.4237 C   0  0  0  0  0  0  0  0  0  0  0  0
   -5.5642   -0.7748   -0.3442 C   0  0  0  0  0  0  0  0  0  0  0  0
   -6.3655    0.2906    0.0632 C   0  0  0  0  0  0  0  0  0  0  0  0
   -5.7815    1.5054    0.3996 C   0  0  0  0  0  0  0  0  0  0  0  0
   -4.3930    1.6559    0.3389 C   0  0  0  0  0  0  0  0  0  0  0  0
   -3.5547    0.6000   -0.0598 C   0  0  0  0  0  0  0  0  0  0  0  0
   -2.1525    0.7390   -0.1170 N   0  0  0  0  0  0  0  0  0  0  0  0
   -1.4598   -0.0212    0.9566 C   0  0  0  0  0  0  0  0  0  0  0  0
    0.0524   -0.0990    0.6625 C   0  0  0  0  0  0  0  0  0  0  0  0
    0.6510    1.2348    0.4309 N   0  0  0  0  0  0  0  0  0  0  0  0
   -0.0784    1.9999   -0.5955 C   0  0  0  0  0  0  0  0  0  0  0  0
   -1.5853    2.0961   -0.2889 C   0  0  0  0  0  0  0  0  0  0  0  0
    0.9703    1.9679    1.5535 N   0  0  0  0  0  0  0  0  0  0  0  0
    2.0451    1.6421    2.2059 C   0  0  0  0  0  0  0  0  0  0  0  0
    3.1119    0.6435    1.9088 C   0  0  0  0  0  0  0  0  0  0  0  0
    3.6026    0.5200    0.6662 C   0  0  0  0  0  0  0  0  0  0  0  0
    4.6808   -0.3817    0.2500 C   0  0  0  0  0  0  0  0  0  0  0  0
    5.8590    0.1566   -0.2802 C   0  0  0  0  0  0  0  0  0  0  0  0
    6.8907   -0.6846   -0.7023 C   0  0  0  0  0  0  0  0  0  0  0  0
    6.7479   -2.0681   -0.6043 C   0  0  0  0  0  0  0  0  0  0  0  0
    5.5733   -2.6117   -0.0870 C   0  0  0  0  0  0  0  0  0  0  0  0
    4.5404   -1.7720    0.3352 C   0  0  0  0  0  0  0  0  0  0  0  0
    3.7429   -0.1777    3.2881 Cl  0  0  0  0  0  0  0  0  0  0  0  0
   -4.4552   -2.1287   -2.5358 H   0  0  0  0  0  0  0  0  0  0  0  0
   -4.5378   -3.3073   -1.1684 H   0  0  0  0  0  0  0  0  0  0  0  0
   -3.0808   -3.1749   -2.1588 H   0  0  0  0  0  0  0  0  0  0  0  0
   -6.0480   -1.7149   -0.5858 H   0  0  0  0  0  0  0  0  0  0  0  0
   -7.4438    0.1697    0.1209 H   0  0  0  0  0  0  0  0  0  0  0  0
   -6.4017    2.3385    0.7200 H   0  0  0  0  0  0  0  0  0  0  0  0
   -3.9778    2.6148    0.6331 H   0  0  0  0  0  0  0  0  0  0  0  0
   -1.6221    0.4815    1.9193 H   0  0  0  0  0  0  0  0  0  0  0  0
   -1.8399   -1.0439    1.0525 H   0  0  0  0  0  0  0  0  0  0  0  0
    0.5747   -0.6036    1.4809 H   0  0  0  0  0  0  0  0  0  0  0  0
    0.2242   -0.6814   -0.2505 H   0  0  0  0  0  0  0  0  0  0  0  0
    0.3697    2.9960   -0.6794 H   0  0  0  0  0  0  0  0  0  0  0  0
    0.0788    1.4815   -1.5489 H   0  0  0  0  0  0  0  0  0  0  0  0
   -1.7279    2.6884    0.6237 H   0  0  0  0  0  0  0  0  0  0  0  0
   -2.0777    2.6116   -1.1220 H   0  0  0  0  0  0  0  0  0  0  0  0
    2.2145    2.1986    3.1445 H   0  0  0  0  0  0  0  0  0  0  0  0
    3.2015    1.1371   -0.1354 H   0  0  0  0  0  0  0  0  0  0  0  0
    5.9850    1.2338   -0.3639 H   0  0  0  0  0  0  0  0  0  0  0  0
    7.8050   -0.2603   -1.1086 H   0  0  0  0  0  0  0  0  0  0  0  0
    7.5514   -2.7223   -0.9332 H   0  0  0  0  0  0  0  0  0  0  0  0
    5.4594   -3.6903   -0.0145 H   0  0  0  0  0  0  0  0  0  0  0  0
    3.6266   -2.2117    0.7277 H   0  0  0  0  0  0  0  0  0  0  0  0
  1  2  1  0
  2  3  1  0
  3  4  2  0
  4  5  1  0
  5  6  2  0
  6  7  1  0
  7  8  2  0
  8  9  1  0
  9 10  1  0
 10 11  1  0
 11 12  1  0
 12 13  1  0
 13 14  1  0
 12 15  1  0
 15 16  2  0
 16 17  1  0
 17 18  2  0
 18 19  1  0
 19 20  2  0
 20 21  1  0
 21 22  2  0
 22 23  1  0
 23 24  2  0
 17 25  1  0
  8  3  1  0
 14  9  1  0
 24 19  1  0
  1 26  1  0
  1 27  1  0
  1 28  1  0
  4 29  1  0
  5 30  1  0
  6 31  1  0
  7 32  1  0
 10 33  1  0
 10 34  1  0
 11 35  1  0
 11 36  1  0
 13 37  1  0
 13 38  1  0
 14 39  1  0
 14 40  1  0
 16 41  1  0
 18 42  1  0
 20 43  1  0
 21 44  1  0
 22 45  1  0
 23 46  1  0
 24 47  1  0
M  END
>  <Unnamed: 0>  (237) 
1441

>  <ID>  (237) 
TRAIN_1441

>  <Canonical_Smiles>  (237) 
COc1ccccc1N2CCN(CC2)\N=C/C(=C/c3ccccc3)/Cl

>  <Inhibition>  (237) 
52.050664

>  <TDC_conf_true_inhibitor>  (237) 
1

>  <TDC_conf_non_inhibitor>  (237) 
0

>  <split>  (237) 
1

$$$$
237
     RDKit          3D

 36 38  0  0  0  0  0  0  0  0999 V2000
   -0.8821   -3.2946   -0.5792 C   0  0  0  0  0  0  0  0  0  0  0  0
   -1.8628   -2.3036   -0.0366 C   0  0  0  0  0  0  0  0  0  0  0  0
   -3.0238   -2.6530    0.5391 C   0  0  0  0  0  0  0  0  0  0  0  0
   -3.9350   -1.6583    1.0334 C   0  0  0  0  0  0  0  0  0  0  0  0
   -3.6309   -0.3615    0.9178 C   0  0  0  0  0  0  0  0  0  0  0  0
   -2.4413    0.0643    0.3379 N   0  0  0  0  0  0  0  0  0  0  0  0
   -2.2017    1.4252    0.2092 C   0  0  0  0  0  0  0  0  0  0  0  0
   -3.0271    2.2835    0.5254 O   0  0  0  0  0  0  0  0  0  0  0  0
   -0.8921    1.8030   -0.3789 C   0  0  0  0  0  0  0  0  0  0  0  0
   -0.0502    0.8294   -0.7964 C   0  0  0  0  0  0  0  0  0  0  0  0
    1.2084    1.1213   -1.3281 N   0  0  0  0  0  0  0  0  0  0  0  0
    2.2427    0.1099   -1.5377 C   0  0  0  0  0  0  0  0  0  0  0  0
    3.0466   -0.1937   -0.3207 C   0  0  0  0  0  0  0  0  0  0  0  0
    4.1866    0.5359   -0.1398 O   0  0  0  0  0  0  0  0  0  0  0  0
    4.7476    0.1108    1.0215 C   0  0  0  0  0  0  0  0  0  0  0  0
    3.9823   -0.8778    1.5939 C   0  0  0  0  0  0  0  0  0  0  0  0
    2.8798   -1.0736    0.7287 C   0  0  0  0  0  0  0  0  0  0  0  0
   -0.3974   -0.4960   -0.6986 N   0  0  0  0  0  0  0  0  0  0  0  0
   -1.5193   -0.8421   -0.1533 C   0  0  0  0  0  0  0  0  0  0  0  0
   -0.5164    3.2264   -0.5592 C   0  0  0  0  0  0  0  0  0  0  0  0
   -0.8906    4.1921    0.2168 N   0  0  0  0  0  0  0  0  0  0  0  0
   -0.3392    5.3934   -0.2439 O   0  0  0  0  0  0  0  0  0  0  0  0
   -0.7165   -3.1275   -1.6486 H   0  0  0  0  0  0  0  0  0  0  0  0
   -1.2357   -4.3240   -0.4575 H   0  0  0  0  0  0  0  0  0  0  0  0
    0.0772   -3.2120   -0.0585 H   0  0  0  0  0  0  0  0  0  0  0  0
   -3.3125   -3.6948    0.6427 H   0  0  0  0  0  0  0  0  0  0  0  0
   -4.8668   -1.9785    1.4882 H   0  0  0  0  0  0  0  0  0  0  0  0
   -4.3107    0.4076    1.2772 H   0  0  0  0  0  0  0  0  0  0  0  0
    1.6222    1.9733   -0.9578 H   0  0  0  0  0  0  0  0  0  0  0  0
    2.9174    0.4874   -2.3159 H   0  0  0  0  0  0  0  0  0  0  0  0
    1.8142   -0.8134   -1.9458 H   0  0  0  0  0  0  0  0  0  0  0  0
    5.6694    0.6014    1.3017 H   0  0  0  0  0  0  0  0  0  0  0  0
    4.1913   -1.3882    2.5233 H   0  0  0  0  0  0  0  0  0  0  0  0
    2.0540   -1.7604    0.8509 H   0  0  0  0  0  0  0  0  0  0  0  0
    0.1459    3.4423   -1.4170 H   0  0  0  0  0  0  0  0  0  0  0  0
   -0.7335    6.0456    0.3659 H   0  0  0  0  0  0  0  0  0  0  0  0
  1  2  1  0
  2  3  2  0
  3  4  1  0
  4  5  2  0
  5  6  1  0
  6  7  1  0
  7  8  2  0
  7  9  1  0
  9 10  2  0
 10 11  1  0
 11 12  1  0
 12 13  1  0
 13 14  1  0
 14 15  1  0
 15 16  2  0
 16 17  1  0
 10 18  1  0
 18 19  2  0
  9 20  1  0
 20 21  2  0
 21 22  1  0
 19  2  1  0
 19  6  1  0
 17 13  2  0
  1 23  1  0
  1 24  1  0
  1 25  1  0
  3 26  1  0
  4 27  1  0
  5 28  1  0
 11 29  1  0
 12 30  1  0
 12 31  1  0
 15 32  1  0
 16 33  1  0
 17 34  1  0
 20 35  1  0
 22 36  1  0
M  END
>  <Unnamed: 0>  (238) 
1443

>  <ID>  (238) 
TRAIN_1443

>  <Canonical_Smiles>  (238) 
CC1=CC=CN2C(=O)C(=C(NCc3occc3)N=C12)\C=N\O

>  <Inhibition>  (238) 
32.26841

>  <TDC_conf_true_inhibitor>  (238) 
1

>  <TDC_conf_non_inhibitor>  (238) 
0

>  <split>  (238) 
1

$$$$
238
     RDKit          3D

 48 51  0  0  0  0  0  0  0  0999 V2000
   -3.5618    2.8384    1.1833 C   0  0  0  0  0  0  0  0  0  0  0  0
   -2.6072    1.9340    0.6411 O   0  0  0  0  0  0  0  0  0  0  0  0
   -2.7201    1.8493   -0.7839 C   0  0  0  0  0  0  0  0  0  0  0  0
   -1.6911    0.8480   -1.3268 C   0  0  0  0  0  0  0  0  0  0  0  0
   -1.9452   -0.5221   -0.8676 N   0  0  0  0  0  0  0  0  0  0  0  0
   -1.3209   -1.0885    0.3614 C   0  0  0  0  0  0  0  0  0  0  0  0
   -0.1838   -0.2905    1.0206 C   0  0  0  0  0  0  0  0  0  0  0  0
    1.0236   -0.2897    0.2193 N   0  0  0  0  0  0  0  0  0  0  0  0
    2.2206    0.1983    0.7008 C   0  0  0  0  0  0  0  0  0  0  0  0
    2.4010    0.4931    1.8785 O   0  0  0  0  0  0  0  0  0  0  0  0
    3.2453    0.3409   -0.3455 C   0  0  0  0  0  0  0  0  0  0  0  0
    2.9658    0.0663   -1.6401 N   0  0  0  0  0  0  0  0  0  0  0  0
    4.1259    0.3070   -2.2760 N   0  0  0  0  0  0  0  0  0  0  0  0
    5.1395    0.7348   -1.4645 C   0  0  0  0  0  0  0  0  0  0  0  0
    6.4644    1.0865   -1.7423 C   0  0  0  0  0  0  0  0  0  0  0  0
    7.2564    1.4896   -0.6623 C   0  0  0  0  0  0  0  0  0  0  0  0
    6.7407    1.5361    0.6327 C   0  0  0  0  0  0  0  0  0  0  0  0
    5.4110    1.1788    0.8872 C   0  0  0  0  0  0  0  0  0  0  0  0
    4.5955    0.7700   -0.1857 C   0  0  0  0  0  0  0  0  0  0  0  0
   -2.3922   -1.4638    1.3929 C   0  0  0  0  0  0  0  0  0  0  0  0
   -3.3552   -2.3352    0.7356 N   0  0  0  0  0  0  0  0  0  0  0  0
   -4.0635   -3.3609    1.2869 C   0  0  0  0  0  0  0  0  0  0  0  0
   -4.8438   -3.9024    0.2873 C   0  0  0  0  0  0  0  0  0  0  0  0
   -4.5842   -3.1711   -0.9005 C   0  0  0  0  0  0  0  0  0  0  0  0
   -3.6368   -2.2082   -0.6048 C   0  0  0  0  0  0  0  0  0  0  0  0
   -3.0489   -1.1798   -1.4396 C   0  0  0  0  0  0  0  0  0  0  0  0
   -3.5217   -0.8472   -2.5230 O   0  0  0  0  0  0  0  0  0  0  0  0
   -4.5784    2.4964    0.9670 H   0  0  0  0  0  0  0  0  0  0  0  0
   -3.4274    2.8697    2.2678 H   0  0  0  0  0  0  0  0  0  0  0  0
   -3.4076    3.8446    0.7821 H   0  0  0  0  0  0  0  0  0  0  0  0
   -2.5244    2.8367   -1.2173 H   0  0  0  0  0  0  0  0  0  0  0  0
   -3.7380    1.5429   -1.0502 H   0  0  0  0  0  0  0  0  0  0  0  0
   -1.7470    0.8553   -2.4218 H   0  0  0  0  0  0  0  0  0  0  0  0
   -0.6787    1.1550   -1.0621 H   0  0  0  0  0  0  0  0  0  0  0  0
   -0.8750   -2.0331    0.0111 H   0  0  0  0  0  0  0  0  0  0  0  0
    0.0780   -0.7393    1.9866 H   0  0  0  0  0  0  0  0  0  0  0  0
   -0.4597    0.7482    1.2213 H   0  0  0  0  0  0  0  0  0  0  0  0
    0.9770   -0.3635   -0.7958 H   0  0  0  0  0  0  0  0  0  0  0  0
    4.1641    0.1610   -3.2785 H   0  0  0  0  0  0  0  0  0  0  0  0
    6.8687    1.0511   -2.7486 H   0  0  0  0  0  0  0  0  0  0  0  0
    8.2931    1.7717   -0.8351 H   0  0  0  0  0  0  0  0  0  0  0  0
    7.3761    1.8528    1.4567 H   0  0  0  0  0  0  0  0  0  0  0  0
    5.0162    1.2174    1.8996 H   0  0  0  0  0  0  0  0  0  0  0  0
   -2.9465   -0.5922    1.7556 H   0  0  0  0  0  0  0  0  0  0  0  0
   -1.9662   -2.0103    2.2406 H   0  0  0  0  0  0  0  0  0  0  0  0
   -3.9689   -3.6227    2.3327 H   0  0  0  0  0  0  0  0  0  0  0  0
   -5.5321   -4.7301    0.4003 H   0  0  0  0  0  0  0  0  0  0  0  0
   -5.0364   -3.3234   -1.8728 H   0  0  0  0  0  0  0  0  0  0  0  0
  1  2  1  0
  2  3  1  0
  3  4  1  0
  4  5  1  0
  5  6  1  0
  6  7  1  0
  7  8  1  0
  8  9  1  0
  9 10  2  0
  9 11  1  0
 11 12  2  0
 12 13  1  0
 13 14  1  0
 14 15  2  0
 15 16  1  0
 16 17  2  0
 17 18  1  0
 18 19  2  0
  6 20  1  0
 20 21  1  0
 21 22  1  0
 22 23  2  0
 23 24  1  0
 24 25  2  0
 25 26  1  0
 26 27  2  0
 26  5  1  0
 19 11  1  0
 19 14  1  0
 25 21  1  0
  1 28  1  0
  1 29  1  0
  1 30  1  0
  3 31  1  0
  3 32  1  0
  4 33  1  0
  4 34  1  0
  6 35  1  0
  7 36  1  0
  7 37  1  0
  8 38  1  0
 13 39  1  0
 15 40  1  0
 16 41  1  0
 17 42  1  0
 18 43  1  0
 20 44  1  0
 20 45  1  0
 22 46  1  0
 23 47  1  0
 24 48  1  0
M  END
>  <Unnamed: 0>  (239) 
1445

>  <ID>  (239) 
TRAIN_1445

>  <Canonical_Smiles>  (239) 
COCCN1C(CNC(=O)c2n[nH]c3ccccc23)Cn4cccc4C1=O

>  <Inhibition>  (239) 
39.123932

>  <TDC_conf_true_inhibitor>  (239) 
1

>  <TDC_conf_non_inhibitor>  (239) 
0

>  <split>  (239) 
1

$$$$
239
     RDKit          3D

 53 54  0  0  0  0  0  0  0  0999 V2000
    2.5472    0.4427   -1.1647 C   0  0  0  0  0  0  0  0  0  0  0  0
    2.8144   -0.4063    0.0687 C   0  0  0  0  0  0  0  0  0  0  0  0
    2.8951    0.4053    1.2866 N   0  0  0  0  0  0  0  0  0  0  0  0
    4.1744    1.0506    1.5770 C   0  0  0  0  0  0  0  0  0  0  0  0
    5.0572    0.1753    2.4536 C   0  0  0  0  0  0  0  0  0  0  0  0
    1.8405    0.6031    2.1908 C   0  0  0  0  0  0  0  0  0  0  0  0
    1.9794    1.3017    3.1944 O   0  0  0  0  0  0  0  0  0  0  0  0
    0.5901   -0.0836    1.9242 C   0  0  0  0  0  0  0  0  0  0  0  0
   -0.6587    0.7680    1.1527 S   0  0  0  0  0  0  0  0  0  0  0  0
   -1.6939   -0.5799    1.1665 C   0  0  0  0  0  0  0  0  0  0  0  0
   -2.9709   -0.4954    0.6105 N   0  0  0  0  0  0  0  0  0  0  0  0
   -3.5329    0.5670   -0.0179 C   0  0  0  0  0  0  0  0  0  0  0  0
   -5.0858    1.0214    0.4148 S   0  0  0  0  0  0  0  0  0  0  0  0
   -2.9077    1.2454   -1.0117 N   0  0  0  0  0  0  0  0  0  0  0  0
   -2.0067    0.7669   -1.9702 C   0  0  0  0  0  0  0  0  0  0  0  0
   -1.5811   -0.5856   -2.1612 C   0  0  0  0  0  0  0  0  0  0  0  0
   -0.6907   -0.7239   -3.2008 C   0  0  0  0  0  0  0  0  0  0  0  0
   -0.3784    0.7633   -3.9682 S   0  0  0  0  0  0  0  0  0  0  0  0
   -1.4426    1.6112   -2.9216 C   0  0  0  0  0  0  0  0  0  0  0  0
   -1.6829    3.0387   -3.0715 C   0  0  0  0  0  0  0  0  0  0  0  0
   -2.5241    3.6660   -2.4344 O   0  0  0  0  0  0  0  0  0  0  0  0
   -0.8626    3.6019   -4.0062 O   0  0  0  0  0  0  0  0  0  0  0  0
   -1.0572    5.0040   -4.1890 C   0  0  0  0  0  0  0  0  0  0  0  0
   -1.1486   -1.6623    1.8486 C   0  0  0  0  0  0  0  0  0  0  0  0
   -1.8376   -2.9397    2.0847 C   0  0  0  0  0  0  0  0  0  0  0  0
   -1.2699   -3.9437    2.4986 O   0  0  0  0  0  0  0  0  0  0  0  0
   -3.1767   -2.8935    1.8056 O   0  0  0  0  0  0  0  0  0  0  0  0
   -3.8666   -4.1210    2.0498 C   0  0  0  0  0  0  0  0  0  0  0  0
    0.2124   -1.3672    2.2843 C   0  0  0  0  0  0  0  0  0  0  0  0
    1.0897   -2.3200    3.0397 C   0  0  0  0  0  0  0  0  0  0  0  0
    1.6142    1.0043   -1.0663 H   0  0  0  0  0  0  0  0  0  0  0  0
    2.4754   -0.1932   -2.0524 H   0  0  0  0  0  0  0  0  0  0  0  0
    3.3513    1.1662   -1.3317 H   0  0  0  0  0  0  0  0  0  0  0  0
    3.7595   -0.9495   -0.0454 H   0  0  0  0  0  0  0  0  0  0  0  0
    2.0306   -1.1620    0.1580 H   0  0  0  0  0  0  0  0  0  0  0  0
    3.9971    2.0064    2.0829 H   0  0  0  0  0  0  0  0  0  0  0  0
    4.6846    1.2781    0.6347 H   0  0  0  0  0  0  0  0  0  0  0  0
    5.2765   -0.7783    1.9624 H   0  0  0  0  0  0  0  0  0  0  0  0
    4.5712   -0.0469    3.4092 H   0  0  0  0  0  0  0  0  0  0  0  0
    6.0062    0.6793    2.6607 H   0  0  0  0  0  0  0  0  0  0  0  0
   -3.6412   -1.1196    1.0548 H   0  0  0  0  0  0  0  0  0  0  0  0
   -3.3052    2.1638   -1.2154 H   0  0  0  0  0  0  0  0  0  0  0  0
   -1.9141   -1.4349   -1.5802 H   0  0  0  0  0  0  0  0  0  0  0  0
   -0.2185   -1.6317   -3.5511 H   0  0  0  0  0  0  0  0  0  0  0  0
   -2.0748    5.2082   -4.5365 H   0  0  0  0  0  0  0  0  0  0  0  0
   -0.8473    5.5446   -3.2608 H   0  0  0  0  0  0  0  0  0  0  0  0
   -0.3555    5.3465   -4.9547 H   0  0  0  0  0  0  0  0  0  0  0  0
   -4.9209   -3.9707    1.8012 H   0  0  0  0  0  0  0  0  0  0  0  0
   -3.7958   -4.3971    3.1064 H   0  0  0  0  0  0  0  0  0  0  0  0
   -3.4707   -4.9165    1.4110 H   0  0  0  0  0  0  0  0  0  0  0  0
    0.5882   -2.6616    3.9508 H   0  0  0  0  0  0  0  0  0  0  0  0
    2.0348   -1.8577    3.3409 H   0  0  0  0  0  0  0  0  0  0  0  0
    1.3292   -3.1882    2.4175 H   0  0  0  0  0  0  0  0  0  0  0  0
  1  2  1  0
  2  3  1  0
  3  4  1  0
  4  5  1  0
  3  6  1  0
  6  7  2  0
  6  8  1  0
  8  9  1  0
  9 10  1  0
 10 11  1  0
 11 12  1  0
 12 13  2  0
 12 14  1  0
 14 15  1  0
 15 16  1  0
 16 17  2  0
 17 18  1  0
 18 19  1  0
 19 20  1  0
 20 21  2  0
 20 22  1  0
 22 23  1  0
 10 24  2  0
 24 25  1  0
 25 26  2  0
 25 27  1  0
 27 28  1  0
 24 29  1  0
 29 30  1  0
 29  8  2  0
 19 15  2  0
  1 31  1  0
  1 32  1  0
  1 33  1  0
  2 34  1  0
  2 35  1  0
  4 36  1  0
  4 37  1  0
  5 38  1  0
  5 39  1  0
  5 40  1  0
 11 41  1  0
 14 42  1  0
 16 43  1  0
 17 44  1  0
 23 45  1  0
 23 46  1  0
 23 47  1  0
 28 48  1  0
 28 49  1  0
 28 50  1  0
 30 51  1  0
 30 52  1  0
 30 53  1  0
M  END
>  <Unnamed: 0>  (240) 
1447

>  <ID>  (240) 
TRAIN_1447

>  <Canonical_Smiles>  (240) 
CCN(CC)C(=O)c1sc(NC(=S)Nc2ccsc2C(=O)OC)c(C(=O)OC)c1C

>  <Inhibition>  (240) 
80.63579

>  <TDC_conf_true_inhibitor>  (240) 
1

>  <TDC_conf_non_inhibitor>  (240) 
0

>  <split>  (240) 
1

$$$$
240
     RDKit          3D

 41 40  0  0  0  0  0  0  0  0999 V2000
    0.0000    0.0000    0.0000 Na  0  0  0  0  0 15  0  0  0  0  0  0
    0.0000    0.0000    0.0000 Na  0  0  0  0  0 15  0  0  0  0  0  0
    7.8574    1.2227   -1.1859 O   0  0  0  0  0  1  0  0  0  0  0  0
    6.8234    0.6187   -0.7749 C   0  0  0  0  0  0  0  0  0  0  0  0
    6.4422   -0.5656   -1.0050 O   0  0  0  0  0  0  0  0  0  0  0  0
    5.9055    1.4637    0.1362 C   0  0  0  0  0  0  0  0  0  0  0  0
    4.7113    0.7485    0.6220 N   0  0  0  0  0  0  0  0  0  0  0  0
    4.8767   -0.0750    1.7119 C   0  0  0  0  0  0  0  0  0  0  0  0
    5.8364   -0.1519    2.4655 O   0  0  0  0  0  0  0  0  0  0  0  0
    3.4203   -1.0034    1.9902 S   0  0  0  0  0  0  0  0  0  0  0  0
    2.5929   -0.3089    0.6426 C   0  0  0  0  0  0  0  0  0  0  0  0
    1.3253   -0.5861    0.2819 C   0  0  0  0  0  0  0  0  0  0  0  0
    0.4375   -1.5568    0.9018 C   0  0  0  0  0  0  0  0  0  0  0  0
   -0.8880   -1.7409    0.7360 C   0  0  0  0  0  0  0  0  0  0  0  0
   -1.5608   -3.1710    1.5737 S   0  0  0  0  0  0  0  0  0  0  0  0
   -3.2521   -2.7285    1.0643 C   0  0  0  0  0  0  0  0  0  0  0  0
   -3.0833   -1.8540   -0.1785 C   0  0  0  0  0  0  0  0  0  0  0  0
   -1.8615   -1.0461    0.0157 N   0  0  0  0  0  0  0  0  0  0  0  0
   -1.6449    0.1247   -0.8388 C   0  0  0  0  0  0  0  0  0  0  0  0
   -2.9107    0.8694   -1.2602 C   0  0  0  0  0  0  0  0  0  0  0  0
   -3.6361    1.5114   -0.0794 C   0  0  0  0  0  0  0  0  0  0  0  0
   -5.3296    1.9034   -0.4687 S   0  0  0  0  0  6  0  0  0  0  0  0
   -5.9355    0.5938   -0.7099 O   0  0  0  0  0  0  0  0  0  0  0  0
   -5.8023    2.5772    0.7390 O   0  0  0  0  0  0  0  0  0  0  0  0
   -5.2246    2.7609   -1.6471 O   0  0  0  0  0  1  0  0  0  0  0  0
    3.4959    0.6803   -0.0555 C   0  0  0  0  0  0  0  0  0  0  0  0
    3.0837    1.5983   -1.4101 S   0  0  0  0  0  0  0  0  0  0  0  0
    5.6106    2.3695   -0.4015 H   0  0  0  0  0  0  0  0  0  0  0  0
    6.4985    1.7786    1.0035 H   0  0  0  0  0  0  0  0  0  0  0  0
    0.9195   -0.0826   -0.5861 H   0  0  0  0  0  0  0  0  0  0  0  0
    0.9495   -2.2591    1.5600 H   0  0  0  0  0  0  0  0  0  0  0  0
   -3.7175   -2.1590    1.8755 H   0  0  0  0  0  0  0  0  0  0  0  0
   -3.8554   -3.6174    0.8620 H   0  0  0  0  0  0  0  0  0  0  0  0
   -2.9677   -2.4743   -1.0764 H   0  0  0  0  0  0  0  0  0  0  0  0
   -3.9892   -1.2580   -0.2986 H   0  0  0  0  0  0  0  0  0  0  0  0
   -1.0103    0.8459   -0.3119 H   0  0  0  0  0  0  0  0  0  0  0  0
   -1.1155   -0.1959   -1.7438 H   0  0  0  0  0  0  0  0  0  0  0  0
   -2.6283    1.6634   -1.9637 H   0  0  0  0  0  0  0  0  0  0  0  0
   -3.5686    0.2042   -1.8298 H   0  0  0  0  0  0  0  0  0  0  0  0
   -3.6654    0.8569    0.7973 H   0  0  0  0  0  0  0  0  0  0  0  0
   -3.1392    2.4432    0.2110 H   0  0  0  0  0  0  0  0  0  0  0  0
  3  4  1  0
  4  5  2  0
  4  6  1  0
  6  7  1  0
  7  8  1  0
  8  9  2  0
  8 10  1  0
 10 11  1  0
 11 12  2  0
 12 13  1  0
 13 14  2  0
 14 15  1  0
 15 16  1  0
 16 17  1  0
 17 18  1  0
 18 19  1  0
 19 20  1  0
 20 21  1  0
 21 22  1  0
 22 23  2  0
 22 24  2  0
 22 25  1  0
 11 26  1  0
 26 27  2  0
 26  7  1  0
 18 14  1  0
  6 28  1  0
  6 29  1  0
 12 30  1  0
 13 31  1  0
 16 32  1  0
 16 33  1  0
 17 34  1  0
 17 35  1  0
 19 36  1  0
 19 37  1  0
 20 38  1  0
 20 39  1  0
 21 40  1  0
 21 41  1  0
M  CHG  4   1   1   2   1   3  -1  25  -1
M  END
>  <Unnamed: 0>  (241) 
1461

>  <ID>  (241) 
TRAIN_1461

>  <Canonical_Smiles>  (241) 
[Na+].[Na+].[O-]C(=O)CN1C(=O)S\C(=C/C=C\2/SCCN2CCCS(=O)(=O)[O-])\C1=S

>  <Inhibition>  (241) 
48.816584

>  <TDC_conf_true_inhibitor>  (241) 
0

>  <TDC_conf_non_inhibitor>  (241) 
1

>  <split>  (241) 
1

$$$$
241
     RDKit          3D

 47 49  0  0  0  0  0  0  0  0999 V2000
   -1.0324    1.6597   -1.0455 O   0  0  0  0  0  0  0  0  0  0  0  0
   -1.2668    0.6151   -0.4377 C   0  0  0  0  0  0  0  0  0  0  0  0
   -0.2379   -0.1847    0.0450 N   0  0  0  0  0  0  0  0  0  0  0  0
    1.1386    0.1247   -0.3181 C   0  0  0  0  0  0  0  0  0  0  0  0
    2.1349   -0.6545    0.5437 C   0  0  0  0  0  0  0  0  0  0  0  0
    3.5740   -0.4073    0.1534 C   0  0  0  0  0  0  0  0  0  0  0  0
    4.3364   -1.3764   -0.3866 C   0  0  0  0  0  0  0  0  0  0  0  0
    5.7647   -1.1806   -0.8076 C   0  0  0  0  0  0  0  0  0  0  0  0
    6.1854    0.2882   -0.8529 C   0  0  0  0  0  0  0  0  0  0  0  0
    5.6525    1.0478    0.3560 C   0  0  0  0  0  0  0  0  0  0  0  0
    4.1247    0.9749    0.4242 C   0  0  0  0  0  0  0  0  0  0  0  0
   -2.7084    0.1936   -0.0424 C   0  0  0  0  0  0  0  0  0  0  0  0
   -3.7277    1.0205   -0.8751 C   0  0  0  0  0  0  0  0  0  0  0  0
   -5.1644    0.8776   -0.3760 C   0  0  0  0  0  0  0  0  0  0  0  0
   -5.2782    1.2977    1.0833 C   0  0  0  0  0  0  0  0  0  0  0  0
   -4.3205    0.5091    1.9663 C   0  0  0  0  0  0  0  0  0  0  0  0
   -2.8766    0.5690    1.4584 C   0  0  0  0  0  0  0  0  0  0  0  0
   -2.8727   -1.2327   -0.3141 N   0  0  0  0  0  0  0  0  0  0  0  0
   -3.0107   -2.2850    0.5405 C   0  0  0  0  0  0  0  0  0  0  0  0
   -2.9974   -3.3994   -0.1526 N   0  0  0  0  0  0  0  0  0  0  0  0
   -2.8458   -3.0255   -1.4618 N   0  0  0  0  0  0  0  0  0  0  0  0
   -2.7537   -1.7086   -1.5697 N   0  0  0  0  0  0  0  0  0  0  0  0
   -0.4357   -1.1737    0.1433 H   0  0  0  0  0  0  0  0  0  0  0  0
    1.2603   -0.1251   -1.3786 H   0  0  0  0  0  0  0  0  0  0  0  0
    1.2923    1.2043   -0.2093 H   0  0  0  0  0  0  0  0  0  0  0  0
    1.9977   -0.3905    1.6002 H   0  0  0  0  0  0  0  0  0  0  0  0
    1.9022   -1.7256    0.4766 H   0  0  0  0  0  0  0  0  0  0  0  0
    3.9262   -2.3713   -0.5470 H   0  0  0  0  0  0  0  0  0  0  0  0
    6.4074   -1.7277   -0.1075 H   0  0  0  0  0  0  0  0  0  0  0  0
    5.9166   -1.6260   -1.7973 H   0  0  0  0  0  0  0  0  0  0  0  0
    7.2782    0.3586   -0.8924 H   0  0  0  0  0  0  0  0  0  0  0  0
    5.8032    0.7522   -1.7712 H   0  0  0  0  0  0  0  0  0  0  0  0
    5.9695    2.0959    0.3121 H   0  0  0  0  0  0  0  0  0  0  0  0
    6.0824    0.6231    1.2722 H   0  0  0  0  0  0  0  0  0  0  0  0
    3.8063    1.3159    1.4164 H   0  0  0  0  0  0  0  0  0  0  0  0
    3.6999    1.6710   -0.3093 H   0  0  0  0  0  0  0  0  0  0  0  0
   -3.6846    0.7445   -1.9363 H   0  0  0  0  0  0  0  0  0  0  0  0
   -3.4645    2.0865   -0.8356 H   0  0  0  0  0  0  0  0  0  0  0  0
   -5.5056   -0.1574   -0.4953 H   0  0  0  0  0  0  0  0  0  0  0  0
   -5.8263    1.5021   -0.9869 H   0  0  0  0  0  0  0  0  0  0  0  0
   -6.3069    1.1520    1.4317 H   0  0  0  0  0  0  0  0  0  0  0  0
   -5.0601    2.3690    1.1743 H   0  0  0  0  0  0  0  0  0  0  0  0
   -4.3603    0.9032    2.9886 H   0  0  0  0  0  0  0  0  0  0  0  0
   -4.6616   -0.5298    2.0241 H   0  0  0  0  0  0  0  0  0  0  0  0
   -2.5129    1.5958    1.6087 H   0  0  0  0  0  0  0  0  0  0  0  0
   -2.2422   -0.0584    2.0971 H   0  0  0  0  0  0  0  0  0  0  0  0
   -3.0990   -2.2121    1.6135 H   0  0  0  0  0  0  0  0  0  0  0  0
  1  2  2  0
  2  3  1  0
  3  4  1  0
  4  5  1  0
  5  6  1  0
  6  7  2  0
  7  8  1  0
  8  9  1  0
  9 10  1  0
 10 11  1  0
  2 12  1  0
 12 13  1  0
 13 14  1  0
 14 15  1  0
 15 16  1  0
 16 17  1  0
 12 18  1  0
 18 19  1  0
 19 20  2  0
 20 21  1  0
 21 22  2  0
 11  6  1  0
 17 12  1  0
 22 18  1  0
  3 23  1  0
  4 24  1  0
  4 25  1  0
  5 26  1  0
  5 27  1  0
  7 28  1  0
  8 29  1  0
  8 30  1  0
  9 31  1  0
  9 32  1  0
 10 33  1  0
 10 34  1  0
 11 35  1  0
 11 36  1  0
 13 37  1  0
 13 38  1  0
 14 39  1  0
 14 40  1  0
 15 41  1  0
 15 42  1  0
 16 43  1  0
 16 44  1  0
 17 45  1  0
 17 46  1  0
 19 47  1  0
M  END
>  <Unnamed: 0>  (242) 
1465

>  <ID>  (242) 
TRAIN_1465

>  <Canonical_Smiles>  (242) 
O=C(NCCC1=CCCCC1)C2(CCCCC2)n3cnnn3

>  <Inhibition>  (242) 
70.718775

>  <TDC_conf_true_inhibitor>  (242) 
1

>  <TDC_conf_non_inhibitor>  (242) 
0

>  <split>  (242) 
1

$$$$
242
     RDKit          3D

 53 55  0  0  0  0  0  0  0  0999 V2000
    5.4429    0.1925   -2.4398 C   0  0  0  0  0  0  0  0  0  0  0  0
    4.1544    0.5650   -1.7522 C   0  0  0  0  0  0  0  0  0  0  0  0
    4.1334    0.8082   -0.4265 C   0  0  0  0  0  0  0  0  0  0  0  0
    2.9677    1.1911    0.4328 C   0  0  0  0  0  0  0  0  0  0  0  0
    2.8066    0.2313    1.4762 O   0  0  0  0  0  0  0  0  0  0  0  0
    2.1519   -0.9877    1.0754 C   0  0  1  0  0  0  0  0  0  0  0  0
    2.4624   -2.0396    2.1470 C   0  0  0  0  0  0  0  0  0  0  0  0
    1.4340   -3.1605    2.1709 C   0  0  0  0  0  0  0  0  0  0  0  0
    0.8234   -3.2902    0.8909 O   0  0  0  0  0  0  0  0  0  0  0  0
   -0.0283   -2.1710    0.6013 C   0  0  0  0  0  0  0  0  0  0  0  0
    0.6253   -0.8042    0.9061 C   0  0  1  0  0  0  0  0  0  0  0  0
    0.0816   -0.2103    2.1397 N   0  0  0  0  0  0  0  0  0  0  0  0
   -1.0593    0.5586    1.9667 C   0  0  0  0  0  0  0  0  0  0  0  0
   -1.1491    1.6425    2.7431 N   0  0  0  0  0  0  0  0  0  0  0  0
   -2.2565    2.3923    2.5933 C   0  0  0  0  0  0  0  0  0  0  0  0
   -3.2501    2.1033    1.6922 C   0  0  0  0  0  0  0  0  0  0  0  0
   -4.3260    2.8977    1.6006 F   0  0  0  0  0  0  0  0  0  0  0  0
   -3.0828    0.9711    0.9052 C   0  0  0  0  0  0  0  0  0  0  0  0
   -1.9795    0.2045    1.0540 N   0  0  0  0  0  0  0  0  0  0  0  0
   -4.0544    0.5926   -0.0442 N   0  0  0  0  0  0  0  0  0  0  0  0
   -4.4155    1.6826   -0.9825 C   0  0  0  0  0  0  0  0  0  0  0  0
   -4.9032    1.1144   -2.3254 C   0  0  0  0  0  0  0  0  0  0  0  0
   -3.9201    0.2934   -2.9753 O   0  0  0  0  0  0  0  0  0  0  0  0
   -3.1618   -0.5214   -2.0623 C   0  0  0  0  0  0  0  0  0  0  0  0
   -3.8410   -0.7148   -0.6996 C   0  0  0  0  0  0  0  0  0  0  0  0
    2.9625    0.6211   -2.6669 C   0  0  0  0  0  0  0  0  0  0  0  0
    5.3539   -0.7964   -2.9010 H   0  0  0  0  0  0  0  0  0  0  0  0
    5.6794    0.9218   -3.2215 H   0  0  0  0  0  0  0  0  0  0  0  0
    6.2904    0.1610   -1.7471 H   0  0  0  0  0  0  0  0  0  0  0  0
    5.0665    0.7282    0.1311 H   0  0  0  0  0  0  0  0  0  0  0  0
    3.2043    2.1456    0.9156 H   0  0  0  0  0  0  0  0  0  0  0  0
    2.0344    1.3448   -0.1103 H   0  0  0  0  0  0  0  0  0  0  0  0
    2.5761   -1.3379    0.1252 H   0  0  0  0  0  0  0  0  0  0  0  0
    2.5520   -1.5948    3.1458 H   0  0  0  0  0  0  0  0  0  0  0  0
    3.4550   -2.4563    1.9325 H   0  0  0  0  0  0  0  0  0  0  0  0
    1.9184   -4.1099    2.4209 H   0  0  0  0  0  0  0  0  0  0  0  0
    0.6634   -2.9823    2.9306 H   0  0  0  0  0  0  0  0  0  0  0  0
   -0.2518   -2.2306   -0.4697 H   0  0  0  0  0  0  0  0  0  0  0  0
   -0.9749   -2.3146    1.1344 H   0  0  0  0  0  0  0  0  0  0  0  0
    0.4379   -0.1213    0.0682 H   0  0  0  0  0  0  0  0  0  0  0  0
    0.7491    0.3928    2.6197 H   0  0  0  0  0  0  0  0  0  0  0  0
   -2.3298    3.2612    3.2379 H   0  0  0  0  0  0  0  0  0  0  0  0
   -5.2083    2.2995   -0.5469 H   0  0  0  0  0  0  0  0  0  0  0  0
   -3.5423    2.3174   -1.1829 H   0  0  0  0  0  0  0  0  0  0  0  0
   -5.1507    1.9321   -3.0099 H   0  0  0  0  0  0  0  0  0  0  0  0
   -5.8131    0.5178   -2.1908 H   0  0  0  0  0  0  0  0  0  0  0  0
   -3.0034   -1.4904   -2.5461 H   0  0  0  0  0  0  0  0  0  0  0  0
   -2.1800   -0.0502   -1.9412 H   0  0  0  0  0  0  0  0  0  0  0  0
   -3.2847   -1.4261   -0.0789 H   0  0  0  0  0  0  0  0  0  0  0  0
   -4.8286   -1.1682   -0.8530 H   0  0  0  0  0  0  0  0  0  0  0  0
    3.1178    1.3809   -3.4401 H   0  0  0  0  0  0  0  0  0  0  0  0
    2.8212   -0.3472   -3.1584 H   0  0  0  0  0  0  0  0  0  0  0  0
    2.0295    0.8609   -2.1535 H   0  0  0  0  0  0  0  0  0  0  0  0
  1  2  1  0
  2  3  2  3
  3  4  1  0
  4  5  1  0
  5  6  1  0
  6  7  1  0
  7  8  1  0
  8  9  1  0
  9 10  1  0
 10 11  1  0
 11 12  1  0
 12 13  1  0
 13 14  2  0
 14 15  1  0
 15 16  2  0
 16 17  1  0
 16 18  1  0
 18 19  2  0
 18 20  1  0
 20 21  1  0
 21 22  1  0
 22 23  1  0
 23 24  1  0
 24 25  1  0
  2 26  1  0
 11  6  1  0
 19 13  1  0
 25 20  1  0
  1 27  1  0
  1 28  1  0
  1 29  1  0
  3 30  1  0
  4 31  1  0
  4 32  1  0
  6 33  1  6
  7 34  1  0
  7 35  1  0
  8 36  1  0
  8 37  1  0
 10 38  1  0
 10 39  1  0
 11 40  1  6
 12 41  1  0
 15 42  1  0
 21 43  1  0
 21 44  1  0
 22 45  1  0
 22 46  1  0
 24 47  1  0
 24 48  1  0
 25 49  1  0
 25 50  1  0
 26 51  1  0
 26 52  1  0
 26 53  1  0
M  END
>  <Unnamed: 0>  (243) 
1470

>  <ID>  (243) 
TRAIN_1470

>  <Canonical_Smiles>  (243) 
CC(=CCO[C@H]1CCOC[C@H]1Nc2ncc(F)c(n2)N3CCOCC3)C

>  <Inhibition>  (243) 
51.921224

>  <TDC_conf_true_inhibitor>  (243) 
1

>  <TDC_conf_non_inhibitor>  (243) 
0

>  <split>  (243) 
1

$$$$
243
     RDKit          3D

 47 50  0  0  0  0  0  0  0  0999 V2000
   -6.3642   -2.4243    1.1620 C   0  0  0  0  0  0  0  0  0  0  0  0
   -5.5480   -1.2839    0.6908 C   0  0  0  0  0  0  0  0  0  0  0  0
   -4.1535   -1.0899    0.8109 C   0  0  0  0  0  0  0  0  0  0  0  0
   -3.9272    0.1230    0.2083 C   0  0  0  0  0  0  0  0  0  0  0  0
   -2.7169    0.9465   -0.0374 C   0  0  0  0  0  0  0  0  0  0  0  0
   -2.4018    1.0761   -1.5259 C   0  0  2  0  0  0  0  0  0  0  0  0
   -2.0265   -0.2325   -2.2113 C   0  0  0  0  0  0  0  0  0  0  0  0
   -1.2132    0.1059   -3.3505 O   0  0  0  0  0  0  0  0  0  0  0  0
   -1.0006    1.5297   -3.3394 C   0  0  0  0  0  0  0  0  0  0  0  0
   -1.2242    1.9713   -1.8960 C   0  0  2  0  0  0  0  0  0  0  0  0
   -0.0297    1.7126   -1.0945 N   0  0  0  0  0  0  0  0  0  0  0  0
    0.2812    2.4411    0.0269 C   0  0  0  0  0  0  0  0  0  0  0  0
   -0.4284    3.3190    0.4980 O   0  0  0  0  0  0  0  0  0  0  0  0
    1.5795    2.0486    0.6374 C   0  0  0  0  0  0  0  0  0  0  0  0
    2.1681    2.7582    1.6044 C   0  0  0  0  0  0  0  0  0  0  0  0
    3.3722    1.9797    1.9691 C   0  0  0  0  0  0  0  0  0  0  0  0
    4.1422    2.3383    2.8432 O   0  0  0  0  0  0  0  0  0  0  0  0
    3.3824    0.8500    1.1450 N   0  0  0  0  0  0  0  0  0  0  0  0
    2.2654    0.8905    0.2853 N   0  0  0  0  0  0  0  0  0  0  0  0
    4.3246   -0.1964    1.0559 C   0  0  0  0  0  0  0  0  0  0  0  0
    5.4000   -0.2829    1.9491 C   0  0  0  0  0  0  0  0  0  0  0  0
    6.3257   -1.3283    1.8616 C   0  0  0  0  0  0  0  0  0  0  0  0
    6.1916   -2.3018    0.8763 C   0  0  0  0  0  0  0  0  0  0  0  0
    5.1336   -2.2293   -0.0244 C   0  0  0  0  0  0  0  0  0  0  0  0
    4.2079   -1.1846    0.0645 C   0  0  0  0  0  0  0  0  0  0  0  0
   -5.1087    0.6281   -0.2373 O   0  0  0  0  0  0  0  0  0  0  0  0
   -6.1280   -0.2590    0.0551 N   0  0  0  0  0  0  0  0  0  0  0  0
   -5.7518   -3.1480    1.7096 H   0  0  0  0  0  0  0  0  0  0  0  0
   -7.1589   -2.0800    1.8316 H   0  0  0  0  0  0  0  0  0  0  0  0
   -6.8248   -2.9428    0.3149 H   0  0  0  0  0  0  0  0  0  0  0  0
   -3.4250   -1.7396    1.2716 H   0  0  0  0  0  0  0  0  0  0  0  0
   -1.8719    0.5010    0.5008 H   0  0  0  0  0  0  0  0  0  0  0  0
   -2.8791    1.9424    0.3919 H   0  0  0  0  0  0  0  0  0  0  0  0
   -3.2876    1.4773   -2.0413 H   0  0  0  0  0  0  0  0  0  0  0  0
   -1.4311   -0.8862   -1.5649 H   0  0  0  0  0  0  0  0  0  0  0  0
   -2.9041   -0.7893   -2.5537 H   0  0  0  0  0  0  0  0  0  0  0  0
   -1.7380    1.9809   -4.0128 H   0  0  0  0  0  0  0  0  0  0  0  0
    0.0029    1.7490   -3.7162 H   0  0  0  0  0  0  0  0  0  0  0  0
   -1.4708    3.0360   -1.8304 H   0  0  0  0  0  0  0  0  0  0  0  0
    0.6646    1.0682   -1.4596 H   0  0  0  0  0  0  0  0  0  0  0  0
    1.8584    3.6724    2.0750 H   0  0  0  0  0  0  0  0  0  0  0  0
    1.6640    0.0749    0.4203 H   0  0  0  0  0  0  0  0  0  0  0  0
    5.5430    0.4541    2.7351 H   0  0  0  0  0  0  0  0  0  0  0  0
    7.1527   -1.3761    2.5660 H   0  0  0  0  0  0  0  0  0  0  0  0
    6.9140   -3.1111    0.8079 H   0  0  0  0  0  0  0  0  0  0  0  0
    5.0310   -2.9816   -0.8025 H   0  0  0  0  0  0  0  0  0  0  0  0
    3.4089   -1.1508   -0.6701 H   0  0  0  0  0  0  0  0  0  0  0  0
  1  2  1  0
  2  3  1  0
  3  4  2  0
  4  5  1  0
  5  6  1  0
  6  7  1  0
  7  8  1  0
  8  9  1  0
  9 10  1  0
 10 11  1  0
 11 12  1  0
 12 13  2  0
 12 14  1  0
 14 15  2  0
 15 16  1  0
 16 17  2  0
 16 18  1  0
 18 19  1  0
 18 20  1  0
 20 21  2  0
 21 22  1  0
 22 23  2  0
 23 24  1  0
 24 25  2  0
  4 26  1  0
 26 27  1  0
 27  2  2  0
 10  6  1  0
 19 14  1  0
 25 20  1  0
  1 28  1  0
  1 29  1  0
  1 30  1  0
  3 31  1  0
  5 32  1  0
  5 33  1  0
  6 34  1  6
  7 35  1  0
  7 36  1  0
  9 37  1  0
  9 38  1  0
 10 39  1  6
 11 40  1  0
 15 41  1  0
 19 42  1  0
 21 43  1  0
 22 44  1  0
 23 45  1  0
 24 46  1  0
 25 47  1  0
M  END
>  <Unnamed: 0>  (244) 
1490

>  <ID>  (244) 
TRAIN_1490

>  <Canonical_Smiles>  (244) 
Cc1cc(C[C@@H]2COC[C@@H]2NC(=O)C3=CC(=O)N(N3)c4ccccc4)on1

>  <Inhibition>  (244) 
47.911463

>  <TDC_conf_true_inhibitor>  (244) 
0

>  <TDC_conf_non_inhibitor>  (244) 
1

>  <split>  (244) 
1

$$$$
244
     RDKit          3D

 53 56  0  0  0  0  0  0  0  0999 V2000
    8.9368   -0.8353   -2.3430 O   0  0  0  0  0  0  0  0  0  0  0  0
    7.9674   -0.7652   -1.6088 C   0  0  0  0  0  0  0  0  0  0  0  0
    6.9890    0.3794   -1.5258 C   0  0  0  0  0  0  0  0  0  0  0  0
    6.2102    0.0648   -0.2391 C   0  0  0  0  0  0  0  0  0  0  0  0
    6.2952   -1.4579   -0.1370 C   0  0  0  0  0  0  0  0  0  0  0  0
    7.5572   -1.7575   -0.7440 N   0  0  0  0  0  0  0  0  0  0  0  0
    4.8086    0.6268   -0.1961 C   0  0  0  0  0  0  0  0  0  0  0  0
    3.8383    0.2651   -1.1456 C   0  0  0  0  0  0  0  0  0  0  0  0
    2.5496    0.7990   -1.0874 C   0  0  0  0  0  0  0  0  0  0  0  0
    2.2229    1.7004   -0.0728 C   0  0  0  0  0  0  0  0  0  0  0  0
    3.1725    2.0807    0.8754 C   0  0  0  0  0  0  0  0  0  0  0  0
    4.4594    1.5418    0.8116 C   0  0  0  0  0  0  0  0  0  0  0  0
    0.5815    2.3703   -0.0137 S   0  0  0  0  0  6  0  0  0  0  0  0
    0.2801    2.8931   -1.3286 O   0  0  0  0  0  0  0  0  0  0  0  0
    0.4542    3.1895    1.1733 O   0  0  0  0  0  0  0  0  0  0  0  0
   -0.3787    0.9823    0.2337 N   0  0  0  0  0  0  0  0  0  0  0  0
   -0.2036    0.2929    1.5542 C   0  0  0  0  0  0  0  0  0  0  0  0
   -1.3875    0.5766    2.4818 C   0  0  0  0  0  0  0  0  0  0  0  0
   -2.6410    0.1190    1.9571 O   0  0  0  0  0  0  0  0  0  0  0  0
   -2.6954    0.0963    0.5133 C   0  0  0  0  0  0  0  0  0  0  0  0
   -4.1590    0.2519    0.0748 C   0  0  0  0  0  0  0  0  0  0  0  0
   -4.8621   -0.9549    0.3913 O   0  0  0  0  0  0  0  0  0  0  0  0
   -6.1818   -1.0186    0.0401 C   0  0  0  0  0  0  0  0  0  0  0  0
   -6.9246    0.0000   -0.5584 C   0  0  0  0  0  0  0  0  0  0  0  0
   -8.2729   -0.2041   -0.8695 C   0  0  0  0  0  0  0  0  0  0  0  0
   -8.8835   -1.4237   -0.5827 C   0  0  0  0  0  0  0  0  0  0  0  0
   -8.1476   -2.4418    0.0179 C   0  0  0  0  0  0  0  0  0  0  0  0
   -6.8022   -2.2372    0.3276 C   0  0  0  0  0  0  0  0  0  0  0  0
   -1.8259    1.2045   -0.1013 C   0  0  0  0  0  0  0  0  0  0  0  0
    7.5169    1.3343   -1.4481 H   0  0  0  0  0  0  0  0  0  0  0  0
    6.3671    0.3723   -2.4262 H   0  0  0  0  0  0  0  0  0  0  0  0
    6.7900    0.4815    0.5984 H   0  0  0  0  0  0  0  0  0  0  0  0
    5.5177   -1.9822   -0.7013 H   0  0  0  0  0  0  0  0  0  0  0  0
    6.2879   -1.8114    0.8977 H   0  0  0  0  0  0  0  0  0  0  0  0
    8.0152   -2.6613   -0.7511 H   0  0  0  0  0  0  0  0  0  0  0  0
    4.0768   -0.4306   -1.9484 H   0  0  0  0  0  0  0  0  0  0  0  0
    1.8092    0.5169   -1.8333 H   0  0  0  0  0  0  0  0  0  0  0  0
    2.9255    2.7943    1.6585 H   0  0  0  0  0  0  0  0  0  0  0  0
    5.1923    1.8505    1.5557 H   0  0  0  0  0  0  0  0  0  0  0  0
    0.7297    0.5886    2.0416 H   0  0  0  0  0  0  0  0  0  0  0  0
   -0.1311   -0.7817    1.3488 H   0  0  0  0  0  0  0  0  0  0  0  0
   -1.2377    0.0804    3.4459 H   0  0  0  0  0  0  0  0  0  0  0  0
   -1.4793    1.6507    2.6788 H   0  0  0  0  0  0  0  0  0  0  0  0
   -2.3301   -0.8903    0.2000 H   0  0  0  0  0  0  0  0  0  0  0  0
   -4.6153    1.0921    0.6121 H   0  0  0  0  0  0  0  0  0  0  0  0
   -4.2013    0.4189   -1.0082 H   0  0  0  0  0  0  0  0  0  0  0  0
   -6.4900    0.9651   -0.7934 H   0  0  0  0  0  0  0  0  0  0  0  0
   -8.8477    0.5923   -1.3359 H   0  0  0  0  0  0  0  0  0  0  0  0
   -9.9306   -1.5796   -0.8264 H   0  0  0  0  0  0  0  0  0  0  0  0
   -8.6181   -3.3939    0.2471 H   0  0  0  0  0  0  0  0  0  0  0  0
   -6.2307   -3.0335    0.7979 H   0  0  0  0  0  0  0  0  0  0  0  0
   -1.9269    1.2006   -1.1922 H   0  0  0  0  0  0  0  0  0  0  0  0
   -2.1462    2.1805    0.2837 H   0  0  0  0  0  0  0  0  0  0  0  0
  1  2  2  0
  2  3  1  0
  3  4  1  0
  4  5  1  0
  5  6  1  0
  4  7  1  0
  7  8  2  0
  8  9  1  0
  9 10  2  0
 10 11  1  0
 11 12  2  0
 10 13  1  0
 13 14  2  0
 13 15  2  0
 13 16  1  0
 16 17  1  0
 17 18  1  0
 18 19  1  0
 19 20  1  0
 20 21  1  0
 21 22  1  0
 22 23  1  0
 23 24  2  0
 24 25  1  0
 25 26  2  0
 26 27  1  0
 27 28  2  0
 20 29  1  0
  6  2  1  0
 12  7  1  0
 29 16  1  0
 28 23  1  0
  3 30  1  0
  3 31  1  0
  4 32  1  0
  5 33  1  0
  5 34  1  0
  6 35  1  0
  8 36  1  0
  9 37  1  0
 11 38  1  0
 12 39  1  0
 17 40  1  0
 17 41  1  0
 18 42  1  0
 18 43  1  0
 20 44  1  0
 21 45  1  0
 21 46  1  0
 24 47  1  0
 25 48  1  0
 26 49  1  0
 27 50  1  0
 28 51  1  0
 29 52  1  0
 29 53  1  0
M  END
>  <Unnamed: 0>  (245) 
1525

>  <ID>  (245) 
TRAIN_1525

>  <Canonical_Smiles>  (245) 
O=C1CC(CN1)c2ccc(cc2)S(=O)(=O)N3CCOC(COc4ccccc4)C3

>  <Inhibition>  (245) 
8.522836

>  <TDC_conf_true_inhibitor>  (245) 
0

>  <TDC_conf_non_inhibitor>  (245) 
1

>  <split>  (245) 
1

$$$$
245
     RDKit          3D

 33 36  0  0  0  0  0  0  0  0999 V2000
    6.6845    0.0686   -1.3376 F   0  0  0  0  0  0  0  0  0  0  0  0
    5.4406   -0.0010   -0.8470 C   0  0  0  0  0  0  0  0  0  0  0  0
    4.3568    0.0879   -1.7136 C   0  0  0  0  0  0  0  0  0  0  0  0
    3.0589    0.0152   -1.2034 C   0  0  0  0  0  0  0  0  0  0  0  0
    2.8552   -0.1464    0.1747 C   0  0  0  0  0  0  0  0  0  0  0  0
    3.9565   -0.2344    1.0380 C   0  0  0  0  0  0  0  0  0  0  0  0
    5.2527   -0.1611    0.5219 C   0  0  0  0  0  0  0  0  0  0  0  0
    1.4807   -0.2204    0.6839 C   0  0  0  0  0  0  0  0  0  0  0  0
    0.3785   -0.1578    0.0020 N   0  0  0  0  0  0  0  0  0  0  0  0
   -0.5946   -0.2938    0.9607 N   0  0  0  0  0  0  0  0  0  0  0  0
   -2.0102   -0.0865    0.6254 C   0  0  1  0  0  0  0  0  0  0  0  0
   -2.3149    1.4223    0.5765 C   0  0  0  0  0  0  0  0  0  0  0  0
   -3.5906    1.7029   -0.1887 C   0  0  0  0  0  0  0  0  0  0  0  0
   -4.2708    2.7033    0.0384 O   0  0  0  0  0  0  0  0  0  0  0  0
   -3.9437    0.6716   -1.2634 C   0  0  2  0  0  0  0  0  0  0  0  0
   -4.6890   -0.3823   -0.6444 O   0  0  0  0  0  0  0  0  0  0  0  0
   -3.7730   -1.4802   -0.5649 C   0  0  0  0  0  0  0  0  0  0  0  0
   -2.4092   -0.8270   -0.6855 C   0  0  1  0  0  0  0  0  0  0  0  0
   -2.6913    0.1336   -1.7182 O   0  0  0  0  0  0  0  0  0  0  0  0
   -0.0101   -0.3740    2.2006 C   0  0  0  0  0  0  0  0  0  0  0  0
   -0.6403   -0.4701    3.7202 S   0  0  0  0  0  0  0  0  0  0  0  0
    1.3364   -0.3604    2.0232 O   0  0  0  0  0  0  0  0  0  0  0  0
    4.5287    0.2134   -2.7783 H   0  0  0  0  0  0  0  0  0  0  0  0
    2.2131    0.0860   -1.8848 H   0  0  0  0  0  0  0  0  0  0  0  0
    3.8226   -0.3592    2.1100 H   0  0  0  0  0  0  0  0  0  0  0  0
    6.1160   -0.2273    1.1773 H   0  0  0  0  0  0  0  0  0  0  0  0
   -2.5806   -0.5230    1.4541 H   0  0  0  0  0  0  0  0  0  0  0  0
   -1.5105    1.9693    0.0702 H   0  0  0  0  0  0  0  0  0  0  0  0
   -2.4057    1.8231    1.5917 H   0  0  0  0  0  0  0  0  0  0  0  0
   -4.4929    1.1317   -2.0886 H   0  0  0  0  0  0  0  0  0  0  0  0
   -3.9261   -2.0443    0.3590 H   0  0  0  0  0  0  0  0  0  0  0  0
   -3.9743   -2.1352   -1.4200 H   0  0  0  0  0  0  0  0  0  0  0  0
   -1.6536   -1.5447   -1.0187 H   0  0  0  0  0  0  0  0  0  0  0  0
  1  2  1  0
  2  3  2  0
  3  4  1  0
  4  5  2  0
  5  6  1  0
  6  7  2  0
  5  8  1  0
  8  9  2  0
  9 10  1  0
 10 11  1  0
 11 12  1  0
 12 13  1  0
 13 14  2  0
 13 15  1  0
 15 16  1  0
 16 17  1  0
 17 18  1  0
 18 19  1  0
 10 20  1  0
 20 21  2  0
 20 22  1  0
  7  2  1  0
 22  8  1  0
 18 11  1  0
 19 15  1  0
  3 23  1  0
  4 24  1  0
  6 25  1  0
  7 26  1  0
 11 27  1  1
 12 28  1  0
 12 29  1  0
 15 30  1  6
 17 31  1  0
 17 32  1  0
 18 33  1  6
M  END
>  <Unnamed: 0>  (246) 
1530

>  <ID>  (246) 
TRAIN_1530

>  <Canonical_Smiles>  (246) 
Fc1ccc(cc1)C2=NN([C@H]3CC(=O)[C@@H]4OC[C@H]3O4)C(=S)O2

>  <Inhibition>  (246) 
3.493564

>  <TDC_conf_true_inhibitor>  (246) 
0

>  <TDC_conf_non_inhibitor>  (246) 
1

>  <split>  (246) 
1

$$$$
246
     RDKit          3D

 54 56  0  0  0  0  0  0  0  0999 V2000
    0.6828    0.0000    0.0000 Cl  0  0  0  0  0  0  0  0  0  0  0  0
    7.0176    0.9106    1.9029 C   0  0  0  0  0  0  0  0  0  0  0  0
    6.7295   -0.3572    1.3960 O   0  0  0  0  0  0  0  0  0  0  0  0
    5.6600   -0.7087    0.6219 C   0  0  0  0  0  0  0  0  0  0  0  0
    4.6877    0.2078    0.2327 C   0  0  0  0  0  0  0  0  0  0  0  0
    3.6149   -0.1543   -0.5464 C   0  0  0  0  0  0  0  0  0  0  0  0
    2.6087    0.8314   -0.9399 C   0  0  0  0  0  0  0  0  0  0  0  0
    1.4637    0.9354    0.0374 C   0  0  0  0  0  0  0  0  0  0  0  0
    0.4447    1.9625   -0.4012 C   0  0  0  0  0  0  0  0  0  0  0  0
   -0.8047    1.3728    0.1430 C   0  0  0  0  0  0  0  0  0  0  0  0
   -0.5911    0.1356    0.3898 N   0  0  0  0  0  0  0  0  0  0  0  0
    0.6834   -0.2336    0.0814 O   0  0  0  0  0  0  0  0  0  0  0  0
   -2.0521    2.1417    0.3446 C   0  0  0  0  0  0  0  0  0  0  0  0
   -3.0929    1.3013    0.8423 N   0  0  0  0  0  0  0  0  0  0  0  0
   -3.5860    0.3219   -0.0721 C   0  0  0  0  0  0  0  0  0  0  0  0
   -4.6849   -0.5252    0.4936 C   0  0  0  0  0  0  0  0  0  0  0  0
   -5.9001    0.2504    0.9186 C   0  0  0  0  0  0  0  0  0  0  0  0
   -6.6704    0.8367   -0.2404 C   0  0  0  0  0  0  0  0  0  0  0  0
   -6.1363    0.5744   -1.4732 O   0  0  0  0  0  0  0  0  0  0  0  0
   -5.8109   -0.7284   -1.7319 C   0  0  0  0  0  0  0  0  0  0  0  0
   -5.1556   -1.4687   -0.6161 C   0  0  0  0  0  0  0  0  0  0  0  0
    3.5238   -1.4702   -0.9393 C   0  0  0  0  0  0  0  0  0  0  0  0
    4.4663   -2.4184   -0.5771 C   0  0  0  0  0  0  0  0  0  0  0  0
    4.6370   -3.7704   -0.8119 O   0  0  0  0  0  0  0  0  0  0  0  0
    5.7980   -4.2440   -0.1621 C   0  0  0  0  0  0  0  0  0  0  0  0
    6.3512   -3.1165    0.4518 O   0  0  0  0  0  0  0  0  0  0  0  0
    5.5266   -2.0149    0.2042 C   0  0  0  0  0  0  0  0  0  0  0  0
   -0.6828    0.0000    0.0000 H   0  0  0  0  0  0  0  0  0  0  0  0
    7.1325    1.6903    1.1035 H   0  0  0  0  0  0  0  0  0  0  0  0
    6.2756    1.2047    2.6677 H   0  0  0  0  0  0  0  0  0  0  0  0
    7.9945    0.8244    2.4667 H   0  0  0  0  0  0  0  0  0  0  0  0
    4.8213    1.2192    0.5761 H   0  0  0  0  0  0  0  0  0  0  0  0
    2.1505    0.6051   -1.9323 H   0  0  0  0  0  0  0  0  0  0  0  0
    3.0271    1.8693   -1.0460 H   0  0  0  0  0  0  0  0  0  0  0  0
    1.8121    1.2483    1.0520 H   0  0  0  0  0  0  0  0  0  0  0  0
    0.3596    1.9796   -1.5123 H   0  0  0  0  0  0  0  0  0  0  0  0
    0.6537    2.9654    0.0241 H   0  0  0  0  0  0  0  0  0  0  0  0
   -2.3495    2.6971   -0.5834 H   0  0  0  0  0  0  0  0  0  0  0  0
   -1.9105    2.9631    1.1037 H   0  0  0  0  0  0  0  0  0  0  0  0
   -3.8443    1.8135    1.3525 H   0  0  0  0  0  0  0  0  0  0  0  0
   -3.8673    0.8397   -1.0106 H   0  0  0  0  0  0  0  0  0  0  0  0
   -2.7676   -0.3684   -0.3550 H   0  0  0  0  0  0  0  0  0  0  0  0
   -4.3284   -1.1111    1.3371 H   0  0  0  0  0  0  0  0  0  0  0  0
   -5.6811    0.9896    1.7146 H   0  0  0  0  0  0  0  0  0  0  0  0
   -6.5907   -0.5054    1.3935 H   0  0  0  0  0  0  0  0  0  0  0  0
   -6.6238    1.9562   -0.0949 H   0  0  0  0  0  0  0  0  0  0  0  0
   -7.7670    0.5992   -0.1864 H   0  0  0  0  0  0  0  0  0  0  0  0
   -6.7183   -1.2404   -2.1177 H   0  0  0  0  0  0  0  0  0  0  0  0
   -5.0811   -0.7185   -2.5884 H   0  0  0  0  0  0  0  0  0  0  0  0
   -4.3169   -2.1238   -0.9322 H   0  0  0  0  0  0  0  0  0  0  0  0
   -5.9319   -2.1224   -0.1298 H   0  0  0  0  0  0  0  0  0  0  0  0
    2.6936   -1.7932   -1.5532 H   0  0  0  0  0  0  0  0  0  0  0  0
    6.5510   -4.6205   -0.9099 H   0  0  0  0  0  0  0  0  0  0  0  0
    5.5788   -4.9989    0.6122 H   0  0  0  0  0  0  0  0  0  0  0  0
  2  3  1  0
  3  4  1  0
  4  5  2  0
  5  6  1  0
  6  7  1  0
  7  8  1  0
  8  9  1  0
  9 10  1  0
 10 11  2  0
 11 12  1  0
 10 13  1  0
 13 14  1  0
 14 15  1  0
 15 16  1  0
 16 17  1  0
 17 18  1  0
 18 19  1  0
 19 20  1  0
 20 21  1  0
  6 22  2  0
 22 23  1  0
 23 24  1  0
 24 25  1  0
 25 26  1  0
 26 27  1  0
 27  4  1  0
 12  8  1  0
 21 16  1  0
 27 23  2  0
  1 28  1  0
  2 29  1  0
  2 30  1  0
  2 31  1  0
  5 32  1  0
  7 33  1  0
  7 34  1  0
  8 35  1  0
  9 36  1  0
  9 37  1  0
 13 38  1  0
 13 39  1  0
 14 40  1  0
 15 41  1  0
 15 42  1  0
 16 43  1  0
 17 44  1  0
 17 45  1  0
 18 46  1  0
 18 47  1  0
 20 48  1  0
 20 49  1  0
 21 50  1  0
 21 51  1  0
 22 52  1  0
 25 53  1  0
 25 54  1  0
M  END
>  <Unnamed: 0>  (247) 
1532

>  <ID>  (247) 
TRAIN_1532

>  <Canonical_Smiles>  (247) 
Cl.COc1cc(CC2CC(=NO2)CNCC3CCOCC3)cc4OCOc14

>  <Inhibition>  (247) 
58.068551

>  <TDC_conf_true_inhibitor>  (247) 
1

>  <TDC_conf_non_inhibitor>  (247) 
0

>  <split>  (247) 
1

$$$$
247
     RDKit          3D

 52 55  0  0  0  0  0  0  0  0999 V2000
   -2.3869    3.1579   -1.2747 C   0  0  0  0  0  0  0  0  0  0  0  0
   -1.8590    1.7967   -0.8703 C   0  0  0  0  0  0  0  0  0  0  0  0
   -2.7214    1.0038   -0.2981 N   0  0  0  0  0  0  0  0  0  0  0  0
   -2.2729   -0.2154    0.1220 C   0  0  0  0  0  0  0  0  0  0  0  0
   -2.9008   -1.2904    0.7304 C   0  0  0  0  0  0  0  0  0  0  0  0
   -1.8693   -2.2382    0.9195 C   0  0  0  0  0  0  0  0  0  0  0  0
   -0.6823   -1.8247    0.4794 N   0  0  0  0  0  0  0  0  0  0  0  0
   -0.9369   -0.5797   -0.0281 N   0  0  0  0  0  0  0  0  0  0  0  0
    0.0164    0.2775   -0.6438 C   0  0  0  0  0  0  0  0  0  0  0  0
    1.3325   -0.2374   -0.7235 N   0  0  0  0  0  0  0  0  0  0  0  0
    2.3855    0.3204    0.1382 C   0  0  0  0  0  0  0  0  0  0  0  0
    3.5785   -0.6348    0.1748 C   0  0  0  0  0  0  0  0  0  0  0  0
    4.7348   -0.0388    0.9729 C   0  0  0  0  0  0  0  0  0  0  0  0
    5.8408   -0.9676    1.1144 N   0  0  0  0  0  0  0  0  0  0  0  0
    6.0390   -1.8391    2.1500 C   0  0  0  0  0  0  0  0  0  0  0  0
    7.2187   -2.4840    1.8539 C   0  0  0  0  0  0  0  0  0  0  0  0
    7.7394   -2.0189    0.6736 N   0  0  0  0  0  0  0  0  0  0  0  0
    6.8915   -1.1016    0.2527 C   0  0  0  0  0  0  0  0  0  0  0  0
   -0.4004    1.4685   -1.1364 C   0  0  0  0  0  0  0  0  0  0  0  0
    0.4580    2.4330   -1.9137 C   0  0  0  0  0  0  0  0  0  0  0  0
    0.1557    2.4142   -3.3883 C   0  0  0  0  0  0  0  0  0  0  0  0
   -0.1567    3.4960   -4.1150 C   0  0  0  0  0  0  0  0  0  0  0  0
   -4.3130   -1.3804    1.0737 C   0  0  0  0  0  0  0  0  0  0  0  0
   -5.0394   -0.2571    1.4930 C   0  0  0  0  0  0  0  0  0  0  0  0
   -6.3919   -0.3656    1.8334 C   0  0  0  0  0  0  0  0  0  0  0  0
   -7.0334   -1.5982    1.7570 C   0  0  0  0  0  0  0  0  0  0  0  0
   -6.3241   -2.7250    1.3463 C   0  0  0  0  0  0  0  0  0  0  0  0
   -4.9716   -2.6177    1.0073 C   0  0  0  0  0  0  0  0  0  0  0  0
   -1.7287    3.9532   -0.9115 H   0  0  0  0  0  0  0  0  0  0  0  0
   -3.3770    3.3187   -0.8341 H   0  0  0  0  0  0  0  0  0  0  0  0
   -2.4864    3.2137   -2.3630 H   0  0  0  0  0  0  0  0  0  0  0  0
   -1.9390   -3.2189    1.3737 H   0  0  0  0  0  0  0  0  0  0  0  0
    1.2464   -1.2475   -0.5119 H   0  0  0  0  0  0  0  0  0  0  0  0
    1.9939    0.4610    1.1552 H   0  0  0  0  0  0  0  0  0  0  0  0
    2.7038    1.2937   -0.2496 H   0  0  0  0  0  0  0  0  0  0  0  0
    3.9066   -0.8715   -0.8471 H   0  0  0  0  0  0  0  0  0  0  0  0
    3.2653   -1.5877    0.6269 H   0  0  0  0  0  0  0  0  0  0  0  0
    4.4113    0.2350    1.9836 H   0  0  0  0  0  0  0  0  0  0  0  0
    5.1204    0.8687    0.4935 H   0  0  0  0  0  0  0  0  0  0  0  0
    5.3614   -1.9232    2.9875 H   0  0  0  0  0  0  0  0  0  0  0  0
    7.7226   -3.2530    2.4310 H   0  0  0  0  0  0  0  0  0  0  0  0
    6.9925   -0.5200   -0.6613 H   0  0  0  0  0  0  0  0  0  0  0  0
    0.3658    3.4411   -1.4973 H   0  0  0  0  0  0  0  0  0  0  0  0
    1.5191    2.1863   -1.8186 H   0  0  0  0  0  0  0  0  0  0  0  0
    0.2363    1.4475   -3.8895 H   0  0  0  0  0  0  0  0  0  0  0  0
   -0.2349    4.4865   -3.6719 H   0  0  0  0  0  0  0  0  0  0  0  0
   -0.3502    3.4071   -5.1811 H   0  0  0  0  0  0  0  0  0  0  0  0
   -4.5610    0.7168    1.5624 H   0  0  0  0  0  0  0  0  0  0  0  0
   -6.9421    0.5158    2.1543 H   0  0  0  0  0  0  0  0  0  0  0  0
   -8.0860   -1.6793    2.0128 H   0  0  0  0  0  0  0  0  0  0  0  0
   -6.8239   -3.6872    1.2821 H   0  0  0  0  0  0  0  0  0  0  0  0
   -4.4469   -3.5105    0.6734 H   0  0  0  0  0  0  0  0  0  0  0  0
  1  2  1  0
  2  3  2  0
  3  4  1  0
  4  5  2  0
  5  6  1  0
  6  7  2  0
  7  8  1  0
  8  9  1  0
  9 10  1  0
 10 11  1  0
 11 12  1  0
 12 13  1  0
 13 14  1  0
 14 15  1  0
 15 16  2  0
 16 17  1  0
 17 18  2  0
  9 19  2  0
 19 20  1  0
 20 21  1  0
 21 22  2  0
  5 23  1  0
 23 24  2  0
 24 25  1  0
 25 26  2  0
 26 27  1  0
 27 28  2  0
 19  2  1  0
  8  4  1  0
 18 14  1  0
 28 23  1  0
  1 29  1  0
  1 30  1  0
  1 31  1  0
  6 32  1  0
 10 33  1  0
 11 34  1  0
 11 35  1  0
 12 36  1  0
 12 37  1  0
 13 38  1  0
 13 39  1  0
 15 40  1  0
 16 41  1  0
 18 42  1  0
 20 43  1  0
 20 44  1  0
 21 45  1  0
 22 46  1  0
 22 47  1  0
 24 48  1  0
 25 49  1  0
 26 50  1  0
 27 51  1  0
 28 52  1  0
M  END
>  <Unnamed: 0>  (248) 
1539

>  <ID>  (248) 
TRAIN_1539

>  <Canonical_Smiles>  (248) 
Cc1nc2c(cnn2c(NCCCn3ccnc3)c1CC=C)c4ccccc4

>  <Inhibition>  (248) 
99.381547

>  <TDC_conf_true_inhibitor>  (248) 
1

>  <TDC_conf_non_inhibitor>  (248) 
0

>  <split>  (248) 
1

$$$$
248
     RDKit          3D

 32 32  0  0  0  0  0  0  0  0999 V2000
    0.6828    0.0000    0.0000 Cl  0  0  0  0  0  0  0  0  0  0  0  0
    6.0845   -0.2101    0.6378 C   0  0  0  0  0  0  0  0  0  0  0  0
    4.6224   -0.5394    0.7326 C   0  0  0  0  0  0  0  0  0  0  0  0
    4.1379   -1.5815    1.3757 O   0  0  0  0  0  0  0  0  0  0  0  0
    2.8651   -1.6212    1.2933 N   0  0  0  0  0  0  0  0  0  0  0  0
    2.4131   -0.5709    0.5669 C   0  0  0  0  0  0  0  0  0  0  0  0
    3.5555    0.1256    0.2072 C   0  0  0  0  0  0  0  0  0  0  0  0
    1.0654   -0.2544    0.2528 N   0  0  0  0  0  0  0  0  0  0  0  0
    0.5339    0.7244   -0.6190 C   0  0  0  0  0  0  0  0  0  0  0  0
    1.2147    1.6467   -1.1619 O   0  0  0  0  0  0  0  0  0  0  0  0
   -0.9343    0.5318   -0.8188 C   0  0  0  0  0  0  0  0  0  0  0  0
   -1.1982   -0.7997   -0.1866 C   0  0  0  0  0  0  0  0  0  0  0  0
   -2.7450   -0.9157    0.6955 S   0  0  0  0  0  0  0  0  0  0  0  0
   -4.2032   -0.8379   -0.3343 C   0  0  0  0  0  0  0  0  0  0  0  0
   -4.3930    0.5029   -1.0036 C   0  0  0  0  0  0  0  0  0  0  0  0
   -4.5022    1.4844    0.0907 N   0  0  0  0  0  0  0  0  0  0  0  0
   -0.0778   -0.9248    0.8038 C   0  0  0  0  0  0  0  0  0  0  0  0
   -0.0871   -1.4940    1.9128 O   0  0  0  0  0  0  0  0  0  0  0  0
   -0.6828    0.0000    0.0000 H   0  0  0  0  0  0  0  0  0  0  0  0
    6.4623   -0.8040   -0.2395 H   0  0  0  0  0  0  0  0  0  0  0  0
    6.6274   -0.5605    1.5176 H   0  0  0  0  0  0  0  0  0  0  0  0
    6.2076    0.8448    0.3959 H   0  0  0  0  0  0  0  0  0  0  0  0
    3.6057    1.0206   -0.3766 H   0  0  0  0  0  0  0  0  0  0  0  0
   -1.1888    0.5217   -1.8914 H   0  0  0  0  0  0  0  0  0  0  0  0
   -1.5207    1.3495   -0.3488 H   0  0  0  0  0  0  0  0  0  0  0  0
   -1.0582   -1.6198   -0.9358 H   0  0  0  0  0  0  0  0  0  0  0  0
   -5.0953   -0.9556    0.3478 H   0  0  0  0  0  0  0  0  0  0  0  0
   -4.2642   -1.6769   -1.0645 H   0  0  0  0  0  0  0  0  0  0  0  0
   -3.5435    0.7819   -1.6569 H   0  0  0  0  0  0  0  0  0  0  0  0
   -5.3577    0.5218   -1.5526 H   0  0  0  0  0  0  0  0  0  0  0  0
   -3.7833    1.2537    0.8082 H   0  0  0  0  0  0  0  0  0  0  0  0
   -5.4431    1.3422    0.5519 H   0  0  0  0  0  0  0  0  0  0  0  0
  2  3  1  0
  3  4  1  0
  4  5  1  0
  5  6  2  0
  6  7  1  0
  6  8  1  0
  8  9  1  0
  9 10  2  0
  9 11  1  0
 11 12  1  0
 12 13  1  0
 13 14  1  0
 14 15  1  0
 15 16  1  0
 12 17  1  0
 17 18  2  0
  7  3  2  0
 17  8  1  0
  1 19  1  0
  2 20  1  0
  2 21  1  0
  2 22  1  0
  7 23  1  0
 11 24  1  0
 11 25  1  0
 12 26  1  0
 14 27  1  0
 14 28  1  0
 15 29  1  0
 15 30  1  0
 16 31  1  0
 16 32  1  0
M  END
>  <Unnamed: 0>  (249) 
1551

>  <ID>  (249) 
TRAIN_1551

>  <Canonical_Smiles>  (249) 
Cl.Cc1onc(c1)N2C(=O)CC(SCCN)C2=O

>  <Inhibition>  (249) 
0.5

>  <TDC_conf_true_inhibitor>  (249) 
0

>  <TDC_conf_non_inhibitor>  (249) 
1

>  <split>  (249) 
1

$$$$
249
     RDKit          3D

 59 61  0  0  0  0  0  0  0  0999 V2000
   -3.4106   -2.3816   -1.8707 C   0  0  0  0  0  0  0  0  0  0  0  0
   -3.4259   -2.8735   -0.4296 C   0  0  0  0  0  0  0  0  0  0  0  0
   -2.2351   -2.3564    0.3860 C   0  0  0  0  0  0  0  0  0  0  0  0
   -2.2418   -2.9594    1.7871 C   0  0  0  0  0  0  0  0  0  0  0  0
   -2.3524   -0.9321    0.5510 O   0  0  0  0  0  0  0  0  0  0  0  0
   -1.4714   -0.1559   -0.1431 C   0  0  0  0  0  0  0  0  0  0  0  0
   -0.6769   -0.5763   -0.9787 O   0  0  0  0  0  0  0  0  0  0  0  0
   -1.6149    1.2618    0.1821 C   0  0  0  0  0  0  0  0  0  0  0  0
   -2.8638    1.9700    0.3850 C   0  0  0  0  0  0  0  0  0  0  0  0
   -4.2454    1.3739    0.4073 C   0  0  0  0  0  0  0  0  0  0  0  0
   -5.3396    2.4418    0.2513 C   0  0  0  0  0  0  0  0  0  0  0  0
   -5.0639    3.6681    1.1307 C   0  0  0  0  0  0  0  0  0  0  0  0
   -3.7422    4.3493    0.7473 C   0  0  0  0  0  0  0  0  0  0  0  0
   -2.6637    3.3288    0.5505 C   0  0  0  0  0  0  0  0  0  0  0  0
   -1.0280    3.7659    0.4333 S   0  0  0  0  0  0  0  0  0  0  0  0
   -0.5517    2.1401    0.2863 C   0  0  0  0  0  0  0  0  0  0  0  0
    0.8178    1.9907    0.2836 N   0  0  0  0  0  0  0  0  0  0  0  0
    1.4415    0.8448    0.7454 C   0  0  0  0  0  0  0  0  0  0  0  0
    0.8913   -0.0620    1.3637 O   0  0  0  0  0  0  0  0  0  0  0  0
    2.9397    0.8359    0.4484 C   0  0  0  0  0  0  0  0  0  0  0  0
    3.6252   -0.3429    1.1511 C   0  0  0  0  0  0  0  0  0  0  0  0
    5.0762   -0.4966    0.7172 C   0  0  0  0  0  0  0  0  0  0  0  0
    5.2174   -0.4850   -0.7562 N   0  0  0  0  0  0  0  0  0  0  0  0
    3.9684   -0.4006   -1.5347 C   0  0  0  0  0  0  0  0  0  0  0  0
    3.1880    0.8258   -1.0723 C   0  0  0  0  0  0  0  0  0  0  0  0
    6.5257   -1.3216   -1.4240 S   0  0  0  0  0  6  0  0  0  0  0  0
    6.6305   -0.9552   -2.8205 O   0  0  0  0  0  0  0  0  0  0  0  0
    7.6506   -1.1750   -0.5247 O   0  0  0  0  0  0  0  0  0  0  0  0
    5.9738   -3.0168   -1.3466 C   0  0  0  0  0  0  0  0  0  0  0  0
   -3.5092   -1.2934   -1.9238 H   0  0  0  0  0  0  0  0  0  0  0  0
   -4.2459   -2.8184   -2.4277 H   0  0  0  0  0  0  0  0  0  0  0  0
   -2.4818   -2.6699   -2.3731 H   0  0  0  0  0  0  0  0  0  0  0  0
   -4.3648   -2.5470    0.0343 H   0  0  0  0  0  0  0  0  0  0  0  0
   -3.4227   -3.9698   -0.4321 H   0  0  0  0  0  0  0  0  0  0  0  0
   -1.2936   -2.6393   -0.0999 H   0  0  0  0  0  0  0  0  0  0  0  0
   -1.4042   -2.5652    2.3730 H   0  0  0  0  0  0  0  0  0  0  0  0
   -2.1600   -4.0499    1.7519 H   0  0  0  0  0  0  0  0  0  0  0  0
   -3.1570   -2.6920    2.3271 H   0  0  0  0  0  0  0  0  0  0  0  0
   -4.3831    0.8539    1.3637 H   0  0  0  0  0  0  0  0  0  0  0  0
   -4.3560    0.6334   -0.3922 H   0  0  0  0  0  0  0  0  0  0  0  0
   -6.3124    2.0072    0.5072 H   0  0  0  0  0  0  0  0  0  0  0  0
   -5.3961    2.7582   -0.7980 H   0  0  0  0  0  0  0  0  0  0  0  0
   -5.8852    4.3880    1.0408 H   0  0  0  0  0  0  0  0  0  0  0  0
   -5.0257    3.3550    2.1822 H   0  0  0  0  0  0  0  0  0  0  0  0
   -3.4647    5.0700    1.5248 H   0  0  0  0  0  0  0  0  0  0  0  0
   -3.8808    4.9064   -0.1879 H   0  0  0  0  0  0  0  0  0  0  0  0
    1.3611    2.8412    0.2063 H   0  0  0  0  0  0  0  0  0  0  0  0
    3.3509    1.7657    0.8660 H   0  0  0  0  0  0  0  0  0  0  0  0
    3.5784   -0.2086    2.2389 H   0  0  0  0  0  0  0  0  0  0  0  0
    3.0886   -1.2778    0.9405 H   0  0  0  0  0  0  0  0  0  0  0  0
    5.6698    0.3330    1.1196 H   0  0  0  0  0  0  0  0  0  0  0  0
    5.4710   -1.4256    1.1421 H   0  0  0  0  0  0  0  0  0  0  0  0
    3.3766   -1.3143   -1.4098 H   0  0  0  0  0  0  0  0  0  0  0  0
    4.1834   -0.2877   -2.6021 H   0  0  0  0  0  0  0  0  0  0  0  0
    3.7600    1.7265   -1.3338 H   0  0  0  0  0  0  0  0  0  0  0  0
    2.2536    0.8800   -1.6436 H   0  0  0  0  0  0  0  0  0  0  0  0
    5.0709   -3.1289   -1.9487 H   0  0  0  0  0  0  0  0  0  0  0  0
    5.7910   -3.2931   -0.3069 H   0  0  0  0  0  0  0  0  0  0  0  0
    6.7691   -3.6437   -1.7586 H   0  0  0  0  0  0  0  0  0  0  0  0
  1  2  1  0
  2  3  1  0
  3  4  1  0
  3  5  1  0
  5  6  1  0
  6  7  2  0
  6  8  1  0
  8  9  1  0
  9 10  1  0
 10 11  1  0
 11 12  1  0
 12 13  1  0
 13 14  1  0
 14 15  1  0
 15 16  1  0
 16 17  1  0
 17 18  1  0
 18 19  2  0
 18 20  1  0
 20 21  1  0
 21 22  1  0
 22 23  1  0
 23 24  1  0
 24 25  1  0
 23 26  1  0
 26 27  2  0
 26 28  2  0
 26 29  1  0
 16  8  2  0
 14  9  2  0
 25 20  1  0
  1 30  1  0
  1 31  1  0
  1 32  1  0
  2 33  1  0
  2 34  1  0
  3 35  1  0
  4 36  1  0
  4 37  1  0
  4 38  1  0
 10 39  1  0
 10 40  1  0
 11 41  1  0
 11 42  1  0
 12 43  1  0
 12 44  1  0
 13 45  1  0
 13 46  1  0
 17 47  1  0
 20 48  1  0
 21 49  1  0
 21 50  1  0
 22 51  1  0
 22 52  1  0
 24 53  1  0
 24 54  1  0
 25 55  1  0
 25 56  1  0
 29 57  1  0
 29 58  1  0
 29 59  1  0
M  END
>  <Unnamed: 0>  (250) 
1554

>  <ID>  (250) 
TRAIN_1554

>  <Canonical_Smiles>  (250) 
CCC(C)OC(=O)c1c2CCCCc2sc1NC(=O)C3CCN(CC3)S(=O)(=O)C

>  <Inhibition>  (250) 
34.629884

>  <TDC_conf_true_inhibitor>  (250) 
1

>  <TDC_conf_non_inhibitor>  (250) 
0

>  <split>  (250) 
1

$$$$
250
     RDKit          3D

 40 42  0  0  0  0  0  0  0  0999 V2000
    4.7977   -2.0672   -0.7492 C   0  0  0  0  0  0  0  0  0  0  0  0
    3.7660   -1.0230   -0.4365 C   0  0  0  0  0  0  0  0  0  0  0  0
    3.4819   -0.0108   -1.3630 C   0  0  0  0  0  0  0  0  0  0  0  0
    2.5450    0.9789   -1.0634 C   0  0  0  0  0  0  0  0  0  0  0  0
    1.8933    0.9604    0.1730 C   0  0  0  0  0  0  0  0  0  0  0  0
    2.1818   -0.0299    1.1150 C   0  0  0  0  0  0  0  0  0  0  0  0
    3.1206   -1.0165    0.8078 C   0  0  0  0  0  0  0  0  0  0  0  0
    0.6911    2.2091    0.5257 S   0  0  0  0  0  6  0  0  0  0  0  0
    1.3156    3.1455    1.4415 O   0  0  0  0  0  0  0  0  0  0  0  0
    0.0687    2.6523   -0.7043 O   0  0  0  0  0  0  0  0  0  0  0  0
   -0.5945    1.4757    1.4319 C   0  0  0  0  0  0  0  0  0  0  0  0
   -0.8741    1.8477    2.7352 C   0  0  0  0  0  0  0  0  0  0  0  0
   -1.8927    1.0720    3.1870 N   0  0  0  0  0  0  0  0  0  0  0  0
   -2.2833    0.1857    2.2103 C   0  0  0  0  0  0  0  0  0  0  0  0
   -3.2810   -0.7904    2.2987 C   0  0  0  0  0  0  0  0  0  0  0  0
   -3.5255   -1.5757    1.1823 C   0  0  0  0  0  0  0  0  0  0  0  0
   -2.8008   -1.3677    0.0168 C   0  0  0  0  0  0  0  0  0  0  0  0
   -3.0723   -2.1610   -1.0707 O   0  0  0  0  0  0  0  0  0  0  0  0
   -1.7894   -0.3774   -0.1008 C   0  0  0  0  0  0  0  0  0  0  0  0
   -1.1341   -0.2178   -1.4613 C   0  0  0  0  0  0  0  0  0  0  0  0
   -1.9154    0.6829   -2.3791 C   0  0  0  0  0  0  0  0  0  0  0  0
   -2.4661    0.2912   -3.5358 C   0  0  0  0  0  0  0  0  0  0  0  0
   -1.5090    0.4209    1.0577 C   0  0  0  0  0  0  0  0  0  0  0  0
    4.8282   -2.2765   -1.8237 H   0  0  0  0  0  0  0  0  0  0  0  0
    5.7858   -1.7250   -0.4267 H   0  0  0  0  0  0  0  0  0  0  0  0
    4.5657   -3.0095   -0.2418 H   0  0  0  0  0  0  0  0  0  0  0  0
    3.9882    0.0105   -2.3261 H   0  0  0  0  0  0  0  0  0  0  0  0
    2.3256    1.7536   -1.7955 H   0  0  0  0  0  0  0  0  0  0  0  0
    1.6978   -0.0421    2.0880 H   0  0  0  0  0  0  0  0  0  0  0  0
    3.3484   -1.7828    1.5463 H   0  0  0  0  0  0  0  0  0  0  0  0
   -0.4205    2.6013    3.3676 H   0  0  0  0  0  0  0  0  0  0  0  0
   -2.3063    1.1271    4.1084 H   0  0  0  0  0  0  0  0  0  0  0  0
   -3.8510   -0.9359    3.2113 H   0  0  0  0  0  0  0  0  0  0  0  0
   -4.2911   -2.3435    1.2389 H   0  0  0  0  0  0  0  0  0  0  0  0
   -3.8677   -2.6864   -0.8891 H   0  0  0  0  0  0  0  0  0  0  0  0
   -0.1307    0.1834   -1.3522 H   0  0  0  0  0  0  0  0  0  0  0  0
   -0.9758   -1.2038   -1.9170 H   0  0  0  0  0  0  0  0  0  0  0  0
   -2.0161    1.7226   -2.0733 H   0  0  0  0  0  0  0  0  0  0  0  0
   -3.0123    0.9947   -4.1555 H   0  0  0  0  0  0  0  0  0  0  0  0
   -2.3916   -0.7359   -3.8785 H   0  0  0  0  0  0  0  0  0  0  0  0
  1  2  1  0
  2  3  2  0
  3  4  1  0
  4  5  2  0
  5  6  1  0
  6  7  2  0
  5  8  1  0
  8  9  2  0
  8 10  2  0
  8 11  1  0
 11 12  2  0
 12 13  1  0
 13 14  1  0
 14 15  2  0
 15 16  1  0
 16 17  2  0
 17 18  1  0
 17 19  1  0
 19 20  1  0
 20 21  1  0
 21 22  2  0
 19 23  2  0
  7  2  1  0
 23 11  1  0
 23 14  1  0
  1 24  1  0
  1 25  1  0
  1 26  1  0
  3 27  1  0
  4 28  1  0
  6 29  1  0
  7 30  1  0
 12 31  1  0
 13 32  1  0
 15 33  1  0
 16 34  1  0
 18 35  1  0
 20 36  1  0
 20 37  1  0
 21 38  1  0
 22 39  1  0
 22 40  1  0
M  END
>  <Unnamed: 0>  (251) 
1558

>  <ID>  (251) 
TRAIN_1558

>  <Canonical_Smiles>  (251) 
Cc1ccc(cc1)S(=O)(=O)c2c[nH]c3ccc(O)c(CC=C)c23

>  <Inhibition>  (251) 
73.847784

>  <TDC_conf_true_inhibitor>  (251) 
1

>  <TDC_conf_non_inhibitor>  (251) 
0

>  <split>  (251) 
1

$$$$
251
     RDKit          3D

 45 48  0  0  0  0  0  0  0  0999 V2000
    0.7595    0.0000    0.0000 Br  0  0  0  0  0  0  0  0  0  0  0  0
    3.1339    2.4094    1.3296 C   0  0  0  0  0  0  0  0  0  0  0  0
    2.5897    1.2234    0.5972 C   0  0  0  0  0  0  0  0  0  0  0  0
    1.2136    1.0996    0.6016 C   0  0  0  0  0  0  0  0  0  0  0  0
    0.5873    0.0709   -0.0377 C   0  0  0  0  0  0  0  0  0  0  0  0
    1.3991   -0.8549   -0.6930 C   0  0  0  0  0  0  0  0  0  0  0  0
    2.7810   -0.7581   -0.7117 C   0  0  0  0  0  0  0  0  0  0  0  0
    4.0914   -1.6709   -1.3787 S   0  0  0  0  0  0  0  0  0  0  0  0
    5.4216   -0.5051   -0.6847 C   0  0  0  0  0  0  0  0  0  0  0  0
    6.7853   -0.7876   -0.9395 N   0  0  0  0  0  0  0  0  0  0  0  0
    4.7253    0.2714   -0.1403 N   0  0  0  0  0  0  0  0  0  0  0  0
    3.4261    0.3234   -0.0393 C   0  0  0  0  0  0  0  0  0  0  0  0
   -0.8780   -0.0673   -0.0420 C   0  0  0  0  0  0  0  0  0  0  0  0
   -1.3269   -0.9305   -1.2252 C   0  0  0  0  0  0  0  0  0  0  0  0
   -2.8465   -1.0470   -1.1548 C   0  0  0  0  0  0  0  0  0  0  0  0
   -3.5276    0.2949   -1.1869 C   0  0  0  0  0  0  0  0  0  0  0  0
   -3.0900    1.0841   -0.0007 C   0  0  0  0  0  0  0  0  0  0  0  0
   -3.3578    0.3714    1.2890 C   0  0  0  0  0  0  0  0  0  0  0  0
   -2.7392   -1.0039    1.2816 C   0  0  0  0  0  0  0  0  0  0  0  0
   -3.2529   -1.7676    0.1056 C   0  0  0  0  0  0  0  0  0  0  0  0
   -1.2572   -0.8818    1.1820 C   0  0  0  0  0  0  0  0  0  0  0  0
   -1.5572    1.2393   -0.1639 C   0  0  0  0  0  0  0  0  0  0  0  0
   -0.7595    0.0000    0.0000 H   0  0  0  0  0  0  0  0  0  0  0  0
    4.2016    2.1656    1.5561 H   0  0  0  0  0  0  0  0  0  0  0  0
    2.6373    2.5645    2.3235 H   0  0  0  0  0  0  0  0  0  0  0  0
    3.0321    3.3224    0.7070 H   0  0  0  0  0  0  0  0  0  0  0  0
    0.6108    1.8481    1.1476 H   0  0  0  0  0  0  0  0  0  0  0  0
    0.9934   -1.7109   -1.2200 H   0  0  0  0  0  0  0  0  0  0  0  0
    7.2187   -1.7072   -0.7133 H   0  0  0  0  0  0  0  0  0  0  0  0
    7.3545   -0.0055   -1.3762 H   0  0  0  0  0  0  0  0  0  0  0  0
   -1.0466   -0.4757   -2.1550 H   0  0  0  0  0  0  0  0  0  0  0  0
   -0.9594   -1.9768   -1.1588 H   0  0  0  0  0  0  0  0  0  0  0  0
   -3.1934   -1.6379   -2.0486 H   0  0  0  0  0  0  0  0  0  0  0  0
   -4.6093    0.1001   -1.2725 H   0  0  0  0  0  0  0  0  0  0  0  0
   -3.2116    0.8618   -2.0892 H   0  0  0  0  0  0  0  0  0  0  0  0
   -3.4980    2.0933    0.0463 H   0  0  0  0  0  0  0  0  0  0  0  0
   -2.8549    0.9314    2.1141 H   0  0  0  0  0  0  0  0  0  0  0  0
   -4.4532    0.2665    1.4319 H   0  0  0  0  0  0  0  0  0  0  0  0
   -2.9914   -1.5312    2.2379 H   0  0  0  0  0  0  0  0  0  0  0  0
   -4.3833   -1.6675    0.1163 H   0  0  0  0  0  0  0  0  0  0  0  0
   -2.9390   -2.8046    0.0255 H   0  0  0  0  0  0  0  0  0  0  0  0
   -0.7620   -0.4939    2.0865 H   0  0  0  0  0  0  0  0  0  0  0  0
   -0.8152   -1.8936    1.0029 H   0  0  0  0  0  0  0  0  0  0  0  0
   -1.4480    1.5905   -1.2293 H   0  0  0  0  0  0  0  0  0  0  0  0
   -1.2044    2.0474    0.4790 H   0  0  0  0  0  0  0  0  0  0  0  0
  2  3  1  0
  3  4  1  0
  4  5  2  0
  5  6  1  0
  6  7  2  0
  7  8  1  0
  8  9  1  0
  9 10  1  0
  9 11  2  0
 11 12  1  0
  5 13  1  0
 13 14  1  0
 14 15  1  0
 15 16  1  0
 16 17  1  0
 17 18  1  0
 18 19  1  0
 19 20  1  0
 19 21  1  0
 17 22  1  0
 12  3  2  0
 12  7  1  0
 21 13  1  0
 22 13  1  0
 20 15  1  0
  1 23  1  0
  2 24  1  0
  2 25  1  0
  2 26  1  0
  4 27  1  0
  6 28  1  0
 10 29  1  0
 10 30  1  0
 14 31  1  0
 14 32  1  0
 15 33  1  0
 16 34  1  0
 16 35  1  0
 17 36  1  0
 18 37  1  0
 18 38  1  0
 19 39  1  0
 20 40  1  0
 20 41  1  0
 21 42  1  0
 21 43  1  0
 22 44  1  0
 22 45  1  0
M  END
>  <Unnamed: 0>  (252) 
1566

>  <ID>  (252) 
TRAIN_1566

>  <Canonical_Smiles>  (252) 
Br.Cc1cc(cc2sc(N)nc12)C34CC5CC(CC(C5)C3)C4

>  <Inhibition>  (252) 
28.415823

>  <TDC_conf_true_inhibitor>  (252) 
1

>  <TDC_conf_non_inhibitor>  (252) 
0

>  <split>  (252) 
1

$$$$
252
     RDKit          3D

 54 59  0  0  0  0  0  0  0  0999 V2000
   -7.2893   -2.0899   -0.3113 C   0  0  0  0  0  0  0  0  0  0  0  0
   -5.9085   -1.5496   -0.5579 C   0  0  0  0  0  0  0  0  0  0  0  0
   -4.9627   -1.5956    0.4702 C   0  0  0  0  0  0  0  0  0  0  0  0
   -3.6628   -1.0890    0.2806 C   0  0  0  0  0  0  0  0  0  0  0  0
   -2.6669   -1.1644    1.4009 C   0  0  0  0  0  0  0  0  0  0  0  0
   -3.3925   -0.5498   -0.9972 C   0  0  0  0  0  0  0  0  0  0  0  0
   -2.2955    0.0554   -1.6943 C   0  0  0  0  0  0  0  0  0  0  0  0
   -1.0493    0.2807   -1.1369 N   0  0  0  0  0  0  0  0  0  0  0  0
    0.0432    0.8156   -1.7902 C   0  0  0  0  0  0  0  0  0  0  0  0
    0.1026    1.1102   -2.9783 O   0  0  0  0  0  0  0  0  0  0  0  0
    1.2615    1.0429   -0.8639 C   0  0  0  0  0  0  0  0  0  0  0  0
    2.4425    1.6303   -1.6798 C   0  0  0  0  0  0  0  0  0  0  0  0
    3.6606    1.8772   -0.7794 C   0  0  0  0  0  0  0  0  0  0  0  0
    3.2761    2.8641    0.3330 C   0  0  0  0  0  0  0  0  0  0  0  0
    2.1201    2.2919    1.1668 C   0  0  0  0  0  0  0  0  0  0  0  0
    0.9049    2.0454    0.2591 C   0  0  0  0  0  0  0  0  0  0  0  0
    2.5608    0.9615    1.7986 C   0  0  0  0  0  0  0  0  0  0  0  0
    2.9698   -0.0631    0.7051 C   0  0  0  0  0  0  0  0  0  0  0  0
    4.1074    0.5474   -0.1530 C   0  0  0  0  0  0  0  0  0  0  0  0
    1.7366   -0.2830   -0.2234 C   0  0  0  0  0  0  0  0  0  0  0  0
    3.4151   -1.3092    1.3354 N   0  0  0  0  0  0  0  0  0  0  0  0
    4.4750   -1.4930    2.1715 C   0  0  0  0  0  0  0  0  0  0  0  0
    4.5319   -2.7475    2.5521 N   0  0  0  0  0  0  0  0  0  0  0  0
    3.4752   -3.3092    1.9060 C   0  0  0  0  0  0  0  0  0  0  0  0
    2.7503   -2.4684    1.1658 N   0  0  0  0  0  0  0  0  0  0  0  0
   -2.6355    0.3914   -2.9402 N   0  0  0  0  0  0  0  0  0  0  0  0
   -3.9137    0.0026   -3.0545 N   0  0  0  0  0  0  0  0  0  0  0  0
   -4.4208   -0.5631   -1.9278 C   0  0  0  0  0  0  0  0  0  0  0  0
   -5.6726   -1.0308   -1.7807 N   0  0  0  0  0  0  0  0  0  0  0  0
   -7.7982   -1.4844    0.4465 H   0  0  0  0  0  0  0  0  0  0  0  0
   -7.2377   -3.1297    0.0317 H   0  0  0  0  0  0  0  0  0  0  0  0
   -7.8851   -2.0648   -1.2291 H   0  0  0  0  0  0  0  0  0  0  0  0
   -5.2407   -2.0308    1.4259 H   0  0  0  0  0  0  0  0  0  0  0  0
   -3.1234   -1.5351    2.3269 H   0  0  0  0  0  0  0  0  0  0  0  0
   -2.2592   -0.1688    1.6121 H   0  0  0  0  0  0  0  0  0  0  0  0
   -1.8497   -1.8421    1.1297 H   0  0  0  0  0  0  0  0  0  0  0  0
   -0.9548    0.0039   -0.1773 H   0  0  0  0  0  0  0  0  0  0  0  0
    2.1439    2.5730   -2.1576 H   0  0  0  0  0  0  0  0  0  0  0  0
    2.7188    0.9466   -2.4937 H   0  0  0  0  0  0  0  0  0  0  0  0
    4.4802    2.2956   -1.3751 H   0  0  0  0  0  0  0  0  0  0  0  0
    4.1426    3.0608    0.9772 H   0  0  0  0  0  0  0  0  0  0  0  0
    2.9812    3.8259   -0.1047 H   0  0  0  0  0  0  0  0  0  0  0  0
    1.8498    3.0023    1.9567 H   0  0  0  0  0  0  0  0  0  0  0  0
    0.0717    1.6753    0.8694 H   0  0  0  0  0  0  0  0  0  0  0  0
    0.5640    2.9931   -0.1775 H   0  0  0  0  0  0  0  0  0  0  0  0
    3.3981    1.1511    2.4843 H   0  0  0  0  0  0  0  0  0  0  0  0
    1.7464    0.5529    2.4137 H   0  0  0  0  0  0  0  0  0  0  0  0
    4.4051   -0.1562   -0.9421 H   0  0  0  0  0  0  0  0  0  0  0  0
    5.0037    0.7238    0.4556 H   0  0  0  0  0  0  0  0  0  0  0  0
    0.9235   -0.7362    0.3580 H   0  0  0  0  0  0  0  0  0  0  0  0
    1.9782   -1.0055   -1.0156 H   0  0  0  0  0  0  0  0  0  0  0  0
    5.1582   -0.7068    2.4573 H   0  0  0  0  0  0  0  0  0  0  0  0
    3.2182   -4.3620    1.9817 H   0  0  0  0  0  0  0  0  0  0  0  0
   -4.3979    0.1501   -3.9301 H   0  0  0  0  0  0  0  0  0  0  0  0
  1  2  1  0
  2  3  2  0
  3  4  1  0
  4  5  1  0
  4  6  2  0
  6  7  1  0
  7  8  1  0
  8  9  1  0
  9 10  2  0
  9 11  1  0
 11 12  1  0
 12 13  1  0
 13 14  1  0
 14 15  1  0
 15 16  1  0
 15 17  1  0
 17 18  1  0
 18 19  1  0
 18 20  1  0
 18 21  1  0
 21 22  1  0
 22 23  2  0
 23 24  1  0
 24 25  2  0
  7 26  2  0
 26 27  1  0
 27 28  1  0
 28 29  2  0
 29  2  1  0
 28  6  1  0
 16 11  1  0
 20 11  1  0
 19 13  1  0
 25 21  1  0
  1 30  1  0
  1 31  1  0
  1 32  1  0
  3 33  1  0
  5 34  1  0
  5 35  1  0
  5 36  1  0
  8 37  1  0
 12 38  1  0
 12 39  1  0
 13 40  1  0
 14 41  1  0
 14 42  1  0
 15 43  1  0
 16 44  1  0
 16 45  1  0
 17 46  1  0
 17 47  1  0
 19 48  1  0
 19 49  1  0
 20 50  1  0
 20 51  1  0
 22 52  1  0
 24 53  1  0
 27 54  1  0
M  END
>  <Unnamed: 0>  (253) 
1577

>  <ID>  (253) 
TRAIN_1577

>  <Canonical_Smiles>  (253) 
Cc1cc(C)c2c(NC(=O)C34CC5CC(C3)CC(C5)(C4)n6cncn6)n[nH]c2n1

>  <Inhibition>  (253) 
74.718135

>  <TDC_conf_true_inhibitor>  (253) 
1

>  <TDC_conf_non_inhibitor>  (253) 
0

>  <split>  (253) 
1

$$$$
253
     RDKit          3D

 56 58  0  0  0  0  0  0  0  0999 V2000
   -7.0049   -0.5915   -0.3182 C   0  0  0  0  0  0  0  0  0  0  0  0
   -5.9768   -0.3894    0.7135 N   0  0  0  0  0  0  0  0  0  0  0  0
   -6.1755    0.8105    1.5282 C   0  0  0  0  0  0  0  0  0  0  0  0
   -4.4303   -0.9242    0.3594 S   0  0  0  0  0  6  0  0  0  0  0  0
   -4.5395   -2.2737   -0.1441 O   0  0  0  0  0  0  0  0  0  0  0  0
   -3.5354   -0.6200    1.4555 O   0  0  0  0  0  0  0  0  0  0  0  0
   -4.0098    0.0703   -0.9490 N   0  0  0  0  0  0  0  0  0  0  0  0
   -3.7677    1.5192   -0.6451 C   0  0  0  0  0  0  0  0  0  0  0  0
   -2.3661    2.0061   -1.0777 C   0  0  0  0  0  0  0  0  0  0  0  0
   -1.2597    1.1056   -0.7007 N   0  0  0  0  0  0  0  0  0  0  0  0
   -0.9096    1.2688    0.7229 C   0  0  0  0  0  0  0  0  0  0  0  0
    0.2450    0.4380    1.2106 C   0  0  0  0  0  0  0  0  0  0  0  0
    0.1727   -0.6237    2.0411 C   0  0  0  0  0  0  0  0  0  0  0  0
   -1.0147   -1.1309    2.5305 O   0  0  0  0  0  0  0  0  0  0  0  0
    1.2992   -1.3042    2.4750 O   0  0  0  0  0  0  0  0  0  0  0  0
    2.5313   -0.9349    2.0121 C   0  0  0  0  0  0  0  0  0  0  0  0
    2.7737    0.1048    1.2082 C   0  0  0  0  0  0  0  0  0  0  0  0
    4.1115    0.5520    0.6845 C   0  0  0  0  0  0  0  0  0  0  0  0
    5.2132   -0.4102    0.8796 N   0  0  0  0  0  0  0  0  0  0  0  0
    5.1593   -1.5358   -0.0838 C   0  0  0  0  0  0  0  0  0  0  0  0
    6.1404   -1.3929   -1.2586 C   0  0  0  0  0  0  0  0  0  0  0  0
    7.5080   -1.2894   -0.8411 O   0  0  0  0  0  0  0  0  0  0  0  0
    7.6576   -0.6906    0.4537 C   0  0  0  0  0  0  0  0  0  0  0  0
    6.5188    0.2825    0.7891 C   0  0  0  0  0  0  0  0  0  0  0  0
    1.6004    0.9179    0.8072 C   0  0  0  0  0  0  0  0  0  0  0  0
    1.7602    1.9597    0.1767 O   0  0  0  0  0  0  0  0  0  0  0  0
   -1.5415   -0.2876   -1.1097 C   0  0  0  0  0  0  0  0  0  0  0  0
   -2.9085   -0.4978   -1.7923 C   0  0  0  0  0  0  0  0  0  0  0  0
   -8.0017   -0.4923    0.1240 H   0  0  0  0  0  0  0  0  0  0  0  0
   -6.9043    0.1504   -1.1158 H   0  0  0  0  0  0  0  0  0  0  0  0
   -6.9480   -1.5956   -0.7474 H   0  0  0  0  0  0  0  0  0  0  0  0
   -6.2236    1.7075    0.9048 H   0  0  0  0  0  0  0  0  0  0  0  0
   -7.1177    0.7238    2.0796 H   0  0  0  0  0  0  0  0  0  0  0  0
   -5.3858    0.9305    2.2744 H   0  0  0  0  0  0  0  0  0  0  0  0
   -3.8837    1.7225    0.4227 H   0  0  0  0  0  0  0  0  0  0  0  0
   -4.5344    2.1026   -1.1671 H   0  0  0  0  0  0  0  0  0  0  0  0
   -2.1936    3.0183   -0.6906 H   0  0  0  0  0  0  0  0  0  0  0  0
   -2.3507    2.1218   -2.1696 H   0  0  0  0  0  0  0  0  0  0  0  0
   -0.6497    2.3230    0.8944 H   0  0  0  0  0  0  0  0  0  0  0  0
   -1.7856    1.1123    1.3569 H   0  0  0  0  0  0  0  0  0  0  0  0
   -1.8027   -0.7725    2.0753 H   0  0  0  0  0  0  0  0  0  0  0  0
    3.2959   -1.5958    2.3988 H   0  0  0  0  0  0  0  0  0  0  0  0
    4.3525    1.4813    1.2192 H   0  0  0  0  0  0  0  0  0  0  0  0
    4.0359    0.8105   -0.3801 H   0  0  0  0  0  0  0  0  0  0  0  0
    5.4271   -2.4407    0.4762 H   0  0  0  0  0  0  0  0  0  0  0  0
    4.1459   -1.7009   -0.4673 H   0  0  0  0  0  0  0  0  0  0  0  0
    6.0658   -2.2642   -1.9173 H   0  0  0  0  0  0  0  0  0  0  0  0
    5.8985   -0.5094   -1.8610 H   0  0  0  0  0  0  0  0  0  0  0  0
    8.6175   -0.1644    0.4613 H   0  0  0  0  0  0  0  0  0  0  0  0
    7.7204   -1.4928    1.1983 H   0  0  0  0  0  0  0  0  0  0  0  0
    6.4889    1.0549    0.0089 H   0  0  0  0  0  0  0  0  0  0  0  0
    6.7263    0.7765    1.7447 H   0  0  0  0  0  0  0  0  0  0  0  0
   -1.4785   -0.9820   -0.2668 H   0  0  0  0  0  0  0  0  0  0  0  0
   -0.7562   -0.5949   -1.8104 H   0  0  0  0  0  0  0  0  0  0  0  0
   -3.0749   -1.5604   -1.9971 H   0  0  0  0  0  0  0  0  0  0  0  0
   -2.9352   -0.0087   -2.7743 H   0  0  0  0  0  0  0  0  0  0  0  0
  1  2  1  0
  2  3  1  0
  2  4  1  0
  4  5  2  0
  4  6  2  0
  4  7  1  0
  7  8  1  0
  8  9  1  0
  9 10  1  0
 10 11  1  0
 11 12  1  0
 12 13  2  0
 13 14  1  0
 13 15  1  0
 15 16  1  0
 16 17  2  0
 17 18  1  0
 18 19  1  0
 19 20  1  0
 20 21  1  0
 21 22  1  0
 22 23  1  0
 23 24  1  0
 17 25  1  0
 25 26  2  0
 10 27  1  0
 27 28  1  0
 28  7  1  0
 25 12  1  0
 24 19  1  0
  1 29  1  0
  1 30  1  0
  1 31  1  0
  3 32  1  0
  3 33  1  0
  3 34  1  0
  8 35  1  0
  8 36  1  0
  9 37  1  0
  9 38  1  0
 11 39  1  0
 11 40  1  0
 14 41  1  0
 16 42  1  0
 18 43  1  0
 18 44  1  0
 20 45  1  0
 20 46  1  0
 21 47  1  0
 21 48  1  0
 23 49  1  0
 23 50  1  0
 24 51  1  0
 24 52  1  0
 27 53  1  0
 27 54  1  0
 28 55  1  0
 28 56  1  0
M  END
>  <Unnamed: 0>  (254) 
1583

>  <ID>  (254) 
TRAIN_1583

>  <Canonical_Smiles>  (254) 
CN(C)S(=O)(=O)N1CCN(CC2=C(O)OC=C(CN3CCOCC3)C2=O)CC1

>  <Inhibition>  (254) 
37.2331

>  <TDC_conf_true_inhibitor>  (254) 
0

>  <TDC_conf_non_inhibitor>  (254) 
1

>  <split>  (254) 
1

$$$$
254
     RDKit          3D

 38 38  0  0  0  0  0  0  0  0999 V2000
   -5.6481   -0.3366    0.0331 C   0  0  0  0  0  0  0  0  0  0  0  0
   -4.3559    0.2603    0.5685 C   0  0  0  0  0  0  0  0  0  0  0  0
   -3.2786    0.4464   -0.5020 C   0  0  0  0  0  0  0  0  0  0  0  0
   -2.7753   -0.8740   -1.0897 C   0  0  0  0  0  0  0  0  0  0  0  0
   -1.7090   -0.6423   -2.0488 N   0  0  0  0  0  0  0  0  0  0  0  0
   -0.4337   -0.3534   -1.6801 C   0  0  0  0  0  0  0  0  0  0  0  0
    0.3727    0.3524   -2.4432 N   0  0  0  0  0  0  0  0  0  0  0  0
    1.6242    0.5280   -1.8882 N   0  0  0  0  0  0  0  0  0  0  0  0
    1.7435   -0.0673   -0.7177 C   0  0  0  0  0  0  0  0  0  0  0  0
    0.3170   -0.8749   -0.2207 S   0  0  0  0  0  0  0  0  0  0  0  0
    3.0967   -0.0100    0.1110 C   0  0  0  0  0  0  0  0  0  0  0  0
    4.1633    0.6559   -0.3705 N   0  0  0  0  0  0  0  0  0  0  0  0
    5.1094    0.4977    0.5659 N   0  0  0  0  0  0  0  0  0  0  0  0
    6.4087    1.0934    0.3650 C   0  0  0  0  0  0  0  0  0  0  0  0
    4.7009   -0.2381    1.6337 C   0  0  0  0  0  0  0  0  0  0  0  0
    3.3954   -0.5869    1.3745 C   0  0  0  0  0  0  0  0  0  0  0  0
    2.4144   -1.5141    2.4003 Cl  0  0  0  0  0  0  0  0  0  0  0  0
   -0.8613   -1.0526    0.0521 O   0  0  0  0  0  0  0  0  0  0  0  0
   -0.0617    0.3106    0.3272 S   0  0  0  0  0  6  0  0  0  0  0  0
   -0.9890    1.3843    0.0764 O   0  0  0  0  0  0  0  0  0  0  0  0
    0.6819    0.1616    1.5521 O   0  0  0  0  0  0  0  0  0  0  0  0
    1.0141    0.2833   -0.8625 O   0  0  0  0  0  0  0  0  0  0  0  0
   -6.4082   -0.3537    0.8209 H   0  0  0  0  0  0  0  0  0  0  0  0
   -5.5035   -1.3656   -0.3086 H   0  0  0  0  0  0  0  0  0  0  0  0
   -6.0383    0.2546   -0.8012 H   0  0  0  0  0  0  0  0  0  0  0  0
   -4.5809    1.2394    1.0080 H   0  0  0  0  0  0  0  0  0  0  0  0
   -3.9711   -0.3695    1.3790 H   0  0  0  0  0  0  0  0  0  0  0  0
   -3.6629    1.0865   -1.3062 H   0  0  0  0  0  0  0  0  0  0  0  0
   -2.4417    0.9927   -0.0498 H   0  0  0  0  0  0  0  0  0  0  0  0
   -3.5914   -1.3710   -1.6255 H   0  0  0  0  0  0  0  0  0  0  0  0
   -2.4660   -1.5656   -0.2979 H   0  0  0  0  0  0  0  0  0  0  0  0
   -2.0039   -0.1492   -2.8878 H   0  0  0  0  0  0  0  0  0  0  0  0
    6.2812    2.1748    0.2719 H   0  0  0  0  0  0  0  0  0  0  0  0
    7.0494    0.8652    1.2203 H   0  0  0  0  0  0  0  0  0  0  0  0
    6.8415    0.6761   -0.5477 H   0  0  0  0  0  0  0  0  0  0  0  0
    5.3501   -0.4514    2.4709 H   0  0  0  0  0  0  0  0  0  0  0  0
   -1.5648   -0.8486   -0.5985 H   0  0  0  0  0  0  0  0  0  0  0  0
    1.7807   -0.2386   -0.5468 H   0  0  0  0  0  0  0  0  0  0  0  0
  1  2  1  0
  2  3  1  0
  3  4  1  0
  4  5  1  0
  5  6  1  0
  6  7  2  0
  7  8  1  0
  8  9  2  0
  9 10  1  0
  9 11  1  0
 11 12  2  0
 12 13  1  0
 13 14  1  0
 13 15  1  0
 15 16  2  0
 16 17  1  0
 18 19  1  0
 19 20  2  0
 19 21  2  0
 19 22  1  0
 10  6  1  0
 16 11  1  0
  1 23  1  0
  1 24  1  0
  1 25  1  0
  2 26  1  0
  2 27  1  0
  3 28  1  0
  3 29  1  0
  4 30  1  0
  4 31  1  0
  5 32  1  0
 14 33  1  0
 14 34  1  0
 14 35  1  0
 15 36  1  0
 18 37  1  0
 22 38  1  0
M  END
>  <Unnamed: 0>  (255) 
1585

>  <ID>  (255) 
TRAIN_1585

>  <Canonical_Smiles>  (255) 
CCCCNc1nnc(s1)c2nn(C)cc2Cl.OS(=O)(=O)O

>  <Inhibition>  (255) 
38.785331

>  <TDC_conf_true_inhibitor>  (255) 
0

>  <TDC_conf_non_inhibitor>  (255) 
1

>  <split>  (255) 
1

$$$$
255
     RDKit          3D

 58 62  0  0  0  0  0  0  0  0999 V2000
    4.0868   -2.5119   -3.8087 C   0  0  0  0  0  0  0  0  0  0  0  0
    4.6336   -1.3333   -3.2360 O   0  0  0  0  0  0  0  0  0  0  0  0
    4.2216   -0.9911   -1.9712 C   0  0  0  0  0  0  0  0  0  0  0  0
    3.2981   -1.7214   -1.2170 C   0  0  0  0  0  0  0  0  0  0  0  0
    2.9373   -1.2966    0.0636 C   0  0  0  0  0  0  0  0  0  0  0  0
    3.4914   -0.1333    0.6136 C   0  0  0  0  0  0  0  0  0  0  0  0
    3.0850    0.3354    1.9923 C   0  0  0  0  0  0  0  0  0  0  0  0
    1.7921    1.0490    1.8099 C   0  0  0  0  0  0  0  0  0  0  0  0
    0.5861    0.3786    1.8040 N   0  0  0  0  0  0  0  0  0  0  0  0
   -0.2813    1.3289    1.5372 C   0  0  0  0  0  0  0  0  0  0  0  0
   -1.6877    1.3517    1.3208 C   0  0  0  0  0  0  0  0  0  0  0  0
   -2.5374    0.0877    1.3231 C   0  0  0  0  0  0  0  0  0  0  0  0
   -4.0093    0.3922    1.2819 C   0  0  0  0  0  0  0  0  0  0  0  0
   -4.4849    1.6344    1.0975 C   0  0  0  0  0  0  0  0  0  0  0  0
   -5.9287    2.0369    1.0785 C   0  0  0  0  0  0  0  0  0  0  0  0
   -3.6262    2.7110    0.9168 O   0  0  0  0  0  0  0  0  0  0  0  0
   -2.2530    2.5706    1.1062 C   0  0  0  0  0  0  0  0  0  0  0  0
   -1.5451    3.7654    1.0449 N   0  0  0  0  0  0  0  0  0  0  0  0
   -0.2562    3.7221    1.2142 C   0  0  0  0  0  0  0  0  0  0  0  0
    0.3750    2.5196    1.4567 N   0  0  0  0  0  0  0  0  0  0  0  0
    1.6999    2.3810    1.6462 N   0  0  0  0  0  0  0  0  0  0  0  0
   -4.9209   -0.7515    1.5226 C   0  0  0  0  0  0  0  0  0  0  0  0
   -5.0821   -1.1692    2.6667 O   0  0  0  0  0  0  0  0  0  0  0  0
   -5.5814   -1.3916    0.3310 C   0  0  0  0  0  0  0  0  0  0  0  0
   -2.1338   -0.8611    0.1925 C   0  0  0  0  0  0  0  0  0  0  0  0
   -1.6852   -2.1570    0.4950 C   0  0  0  0  0  0  0  0  0  0  0  0
   -1.3194   -3.0384   -0.5234 C   0  0  0  0  0  0  0  0  0  0  0  0
   -1.3963   -2.6375   -1.8553 C   0  0  0  0  0  0  0  0  0  0  0  0
   -1.8390   -1.3551   -2.1717 C   0  0  0  0  0  0  0  0  0  0  0  0
   -2.2070   -0.4710   -1.1563 C   0  0  0  0  0  0  0  0  0  0  0  0
    4.4143    0.6029   -0.1476 C   0  0  0  0  0  0  0  0  0  0  0  0
    4.7839    0.1837   -1.4324 C   0  0  0  0  0  0  0  0  0  0  0  0
    5.6787    0.8468   -2.2368 O   0  0  0  0  0  0  0  0  0  0  0  0
    6.2317    2.0598   -1.7480 C   0  0  0  0  0  0  0  0  0  0  0  0
    4.3516   -3.3971   -3.2211 H   0  0  0  0  0  0  0  0  0  0  0  0
    4.5229   -2.6330   -4.8050 H   0  0  0  0  0  0  0  0  0  0  0  0
    3.0018   -2.4261   -3.9302 H   0  0  0  0  0  0  0  0  0  0  0  0
    2.8319   -2.6234   -1.5979 H   0  0  0  0  0  0  0  0  0  0  0  0
    2.2018   -1.8715    0.6248 H   0  0  0  0  0  0  0  0  0  0  0  0
    2.9687   -0.5197    2.6676 H   0  0  0  0  0  0  0  0  0  0  0  0
    3.8463    0.9923    2.4275 H   0  0  0  0  0  0  0  0  0  0  0  0
   -2.3411   -0.4090    2.2851 H   0  0  0  0  0  0  0  0  0  0  0  0
   -6.1921    2.4347    0.0931 H   0  0  0  0  0  0  0  0  0  0  0  0
   -6.6112    1.2126    1.3004 H   0  0  0  0  0  0  0  0  0  0  0  0
   -6.1081    2.8196    1.8231 H   0  0  0  0  0  0  0  0  0  0  0  0
    0.3545    4.6372    1.1705 H   0  0  0  0  0  0  0  0  0  0  0  0
   -6.6599   -1.4416    0.5030 H   0  0  0  0  0  0  0  0  0  0  0  0
   -5.1766   -2.3972    0.1913 H   0  0  0  0  0  0  0  0  0  0  0  0
   -5.4059   -0.8105   -0.5785 H   0  0  0  0  0  0  0  0  0  0  0  0
   -1.6113   -2.4876    1.5296 H   0  0  0  0  0  0  0  0  0  0  0  0
   -0.9716   -4.0379   -0.2756 H   0  0  0  0  0  0  0  0  0  0  0  0
   -1.1086   -3.3239   -2.6473 H   0  0  0  0  0  0  0  0  0  0  0  0
   -1.8939   -1.0413   -3.2111 H   0  0  0  0  0  0  0  0  0  0  0  0
   -2.5474    0.5260   -1.4289 H   0  0  0  0  0  0  0  0  0  0  0  0
    4.8262    1.5096    0.2844 H   0  0  0  0  0  0  0  0  0  0  0  0
    5.4515    2.8071   -1.5692 H   0  0  0  0  0  0  0  0  0  0  0  0
    6.9004    2.4566   -2.5181 H   0  0  0  0  0  0  0  0  0  0  0  0
    6.8296    1.8865   -0.8473 H   0  0  0  0  0  0  0  0  0  0  0  0
  1  2  1  0
  2  3  1  0
  3  4  2  0
  4  5  1  0
  5  6  2  0
  6  7  1  0
  7  8  1  0
  8  9  1  0
  9 10  2  0
 10 11  1  0
 11 12  1  0
 12 13  1  0
 13 14  2  0
 14 15  1  0
 14 16  1  0
 16 17  1  0
 17 18  1  0
 18 19  2  0
 19 20  1  0
 20 21  1  0
 13 22  1  0
 22 23  2  0
 22 24  1  0
 12 25  1  0
 25 26  2  0
 26 27  1  0
 27 28  2  0
 28 29  1  0
 29 30  2  0
  6 31  1  0
 31 32  2  0
 32 33  1  0
 33 34  1  0
 32  3  1  0
 21  8  2  0
 20 10  1  0
 17 11  2  0
 30 25  1  0
  1 35  1  0
  1 36  1  0
  1 37  1  0
  4 38  1  0
  5 39  1  0
  7 40  1  0
  7 41  1  0
 12 42  1  0
 15 43  1  0
 15 44  1  0
 15 45  1  0
 19 46  1  0
 24 47  1  0
 24 48  1  0
 24 49  1  0
 26 50  1  0
 27 51  1  0
 28 52  1  0
 29 53  1  0
 30 54  1  0
 31 55  1  0
 34 56  1  0
 34 57  1  0
 34 58  1  0
M  END
>  <Unnamed: 0>  (256) 
1589

>  <ID>  (256) 
TRAIN_1589

>  <Canonical_Smiles>  (256) 
COc1ccc(Cc2nc3c4C(C(=C(C)Oc4ncn3n2)C(=O)C)c5ccccc5)cc1OC

>  <Inhibition>  (256) 
86.482636

>  <TDC_conf_true_inhibitor>  (256) 
1

>  <TDC_conf_non_inhibitor>  (256) 
0

>  <split>  (256) 
1

$$$$
256
     RDKit          3D

 39 41  0  0  0  0  0  0  0  0999 V2000
    4.1053    1.5320   -0.6464 C   0  0  0  0  0  0  0  0  0  0  0  0
    3.1343    0.5162   -1.2287 C   0  0  0  0  0  0  0  0  0  0  0  0
    2.7414   -0.5860   -0.2409 C   0  0  0  0  0  0  0  0  0  0  0  0
    1.8783   -0.1310    0.9412 C   0  0  0  0  0  0  0  0  0  0  0  0
    0.4957    0.1402    0.5872 N   0  0  0  0  0  0  0  0  0  0  0  0
   -0.0049    1.3803    0.3483 C   0  0  0  0  0  0  0  0  0  0  0  0
    0.5238    2.9633    0.3537 S   0  0  0  0  0  0  0  0  0  0  0  0
   -1.0850    3.4329   -0.1410 C   0  0  0  0  0  0  0  0  0  0  0  0
   -1.3947    4.8708   -0.3621 C   0  0  0  0  0  0  0  0  0  0  0  0
   -1.9537    2.4429   -0.2909 N   0  0  0  0  0  0  0  0  0  0  0  0
   -1.2970    1.2864    0.0014 C   0  0  0  0  0  0  0  0  0  0  0  0
   -1.6877   -0.0578    0.0366 C   0  0  0  0  0  0  0  0  0  0  0  0
   -2.9031   -0.7186   -0.2197 C   0  0  0  0  0  0  0  0  0  0  0  0
   -2.9885   -2.1038   -0.0718 C   0  0  0  0  0  0  0  0  0  0  0  0
   -4.2904   -2.8097   -0.3109 C   0  0  0  0  0  0  0  0  0  0  0  0
   -1.8678   -2.8121    0.3669 C   0  0  0  0  0  0  0  0  0  0  0  0
   -0.6214   -2.1977    0.6367 C   0  0  0  0  0  0  0  0  0  0  0  0
    0.4949   -3.0737    1.1355 C   0  0  0  0  0  0  0  0  0  0  0  0
   -0.5467   -0.7931    0.4462 C   0  0  0  0  0  0  0  0  0  0  0  0
    3.6627    2.0923    0.1809 H   0  0  0  0  0  0  0  0  0  0  0  0
    4.3998    2.2527   -1.4161 H   0  0  0  0  0  0  0  0  0  0  0  0
    5.0125    1.0404   -0.2808 H   0  0  0  0  0  0  0  0  0  0  0  0
    3.6164    0.0438   -2.0936 H   0  0  0  0  0  0  0  0  0  0  0  0
    2.2451    1.0258   -1.6129 H   0  0  0  0  0  0  0  0  0  0  0  0
    3.6564   -1.0450    0.1533 H   0  0  0  0  0  0  0  0  0  0  0  0
    2.2179   -1.3662   -0.8051 H   0  0  0  0  0  0  0  0  0  0  0  0
    2.2938    0.7619    1.4189 H   0  0  0  0  0  0  0  0  0  0  0  0
    1.8695   -0.8962    1.7213 H   0  0  0  0  0  0  0  0  0  0  0  0
   -0.7613    5.2881   -1.1511 H   0  0  0  0  0  0  0  0  0  0  0  0
   -1.2410    5.4471    0.5556 H   0  0  0  0  0  0  0  0  0  0  0  0
   -2.4388    4.9942   -0.6671 H   0  0  0  0  0  0  0  0  0  0  0  0
   -3.7667   -0.1344   -0.5274 H   0  0  0  0  0  0  0  0  0  0  0  0
   -4.8873   -2.2858   -1.0650 H   0  0  0  0  0  0  0  0  0  0  0  0
   -4.1207   -3.8262   -0.6813 H   0  0  0  0  0  0  0  0  0  0  0  0
   -4.8640   -2.8624    0.6196 H   0  0  0  0  0  0  0  0  0  0  0  0
   -1.9634   -3.8890    0.5103 H   0  0  0  0  0  0  0  0  0  0  0  0
    0.7614   -2.7959    2.1594 H   0  0  0  0  0  0  0  0  0  0  0  0
    1.3704   -2.9967    0.4883 H   0  0  0  0  0  0  0  0  0  0  0  0
    0.2044   -4.1299    1.1511 H   0  0  0  0  0  0  0  0  0  0  0  0
  1  2  1  0
  2  3  1  0
  3  4  1  0
  4  5  1  0
  5  6  1  0
  6  7  1  0
  7  8  1  0
  8  9  1  0
  8 10  2  0
 10 11  1  0
 11 12  1  0
 12 13  2  0
 13 14  1  0
 14 15  1  0
 14 16  2  0
 16 17  1  0
 17 18  1  0
 17 19  2  0
 19  5  1  0
 11  6  2  0
 19 12  1  0
  1 20  1  0
  1 21  1  0
  1 22  1  0
  2 23  1  0
  2 24  1  0
  3 25  1  0
  3 26  1  0
  4 27  1  0
  4 28  1  0
  9 29  1  0
  9 30  1  0
  9 31  1  0
 13 32  1  0
 15 33  1  0
 15 34  1  0
 15 35  1  0
 16 36  1  0
 18 37  1  0
 18 38  1  0
 18 39  1  0
M  END
>  <Unnamed: 0>  (257) 
1598

>  <ID>  (257) 
TRAIN_1598

>  <Canonical_Smiles>  (257) 
CCCCn1c2sc(C)nc2c3cc(C)cc(C)c13

>  <Inhibition>  (257) 
5.656411

>  <TDC_conf_true_inhibitor>  (257) 
0

>  <TDC_conf_non_inhibitor>  (257) 
1

>  <split>  (257) 
1

$$$$
257
     RDKit          3D

 50 54  0  0  0  0  0  0  0  0999 V2000
    2.5987    2.6536   -1.1864 O   0  0  0  0  0  0  0  0  0  0  0  0
    2.5705    1.4988   -0.4513 C   0  0  0  0  0  0  0  0  0  0  0  0
    1.5083    0.6747   -0.4989 C   0  0  0  0  0  0  0  0  0  0  0  0
    0.2273    0.9412   -1.2968 C   0  0  0  0  0  0  0  0  0  0  0  0
   -0.9598    0.0275   -1.0300 C   0  0  0  0  0  0  0  0  0  0  0  0
   -1.5679   -0.7060   -1.9689 C   0  0  0  0  0  0  0  0  0  0  0  0
   -1.1436   -0.6662   -3.2721 O   0  0  0  0  0  0  0  0  0  0  0  0
   -2.6278   -1.5255   -1.7661 N   0  0  0  0  0  0  0  0  0  0  0  0
   -3.1295   -1.5790   -0.5770 C   0  0  0  0  0  0  0  0  0  0  0  0
   -4.5218   -2.6257   -0.4248 S   0  0  0  0  0  0  0  0  0  0  0  0
   -4.7181   -2.8123    1.3458 C   0  0  0  0  0  0  0  0  0  0  0  0
   -4.5665   -1.4697    2.0157 C   0  0  0  0  0  0  0  0  0  0  0  0
   -3.1405   -0.9862    1.8628 C   0  0  0  0  0  0  0  0  0  0  0  0
   -2.6621   -0.8534    0.4933 N   0  0  0  0  0  0  0  0  0  0  0  0
   -1.5102   -0.0933    0.3409 C   0  0  0  0  0  0  0  0  0  0  0  0
   -0.9422    0.4501    1.2898 O   0  0  0  0  0  0  0  0  0  0  0  0
   -0.2803    2.3944   -1.2956 C   0  0  0  0  0  0  0  0  0  0  0  0
   -0.3781    3.1603   -0.1273 C   0  0  0  0  0  0  0  0  0  0  0  0
   -0.8888    4.4470   -0.2091 C   0  0  0  0  0  0  0  0  0  0  0  0
   -1.3150    5.0187   -1.3552 N   0  0  0  0  0  0  0  0  0  0  0  0
   -1.2190    4.2679   -2.4720 C   0  0  0  0  0  0  0  0  0  0  0  0
   -0.7229    2.9733   -2.4936 C   0  0  0  0  0  0  0  0  0  0  0  0
    1.7060   -0.6227    0.2091 C   0  0  0  0  0  0  0  0  0  0  0  0
    1.0064   -1.6032   -0.0406 O   0  0  0  0  0  0  0  0  0  0  0  0
    2.7466   -0.6752    1.1102 N   0  0  0  0  0  0  0  0  0  0  0  0
    2.8748   -1.8211    2.0000 C   0  0  0  0  0  0  0  0  0  0  0  0
    4.1471   -2.6108    1.7197 C   0  0  0  0  0  0  0  0  0  0  0  0
    5.4070   -1.7544    1.5905 C   0  0  0  0  0  0  0  0  0  0  0  0
    5.1613   -0.0063    2.0123 S   0  0  0  0  0  0  0  0  0  0  0  0
    3.7381    0.2667    1.0337 C   0  0  0  0  0  0  0  0  0  0  0  0
    3.7036    1.3072    0.2763 N   0  0  0  0  0  0  0  0  0  0  0  0
    3.4545    3.0457   -0.9326 H   0  0  0  0  0  0  0  0  0  0  0  0
    0.5614    0.7518   -2.3290 H   0  0  0  0  0  0  0  0  0  0  0  0
   -1.7390   -1.3137   -3.6954 H   0  0  0  0  0  0  0  0  0  0  0  0
   -3.9848   -3.5326    1.7248 H   0  0  0  0  0  0  0  0  0  0  0  0
   -5.7138   -3.2220    1.5437 H   0  0  0  0  0  0  0  0  0  0  0  0
   -4.7971   -1.5683    3.0825 H   0  0  0  0  0  0  0  0  0  0  0  0
   -5.2726   -0.7369    1.6062 H   0  0  0  0  0  0  0  0  0  0  0  0
   -2.4529   -1.6705    2.3766 H   0  0  0  0  0  0  0  0  0  0  0  0
   -3.0501   -0.0157    2.3669 H   0  0  0  0  0  0  0  0  0  0  0  0
   -0.0614    2.7737    0.8359 H   0  0  0  0  0  0  0  0  0  0  0  0
   -0.9728    5.0689    0.6772 H   0  0  0  0  0  0  0  0  0  0  0  0
   -1.5668    4.7468   -3.3827 H   0  0  0  0  0  0  0  0  0  0  0  0
   -0.6861    2.4265   -3.4308 H   0  0  0  0  0  0  0  0  0  0  0  0
    2.0041   -2.4812    1.9235 H   0  0  0  0  0  0  0  0  0  0  0  0
    2.8863   -1.4426    3.0301 H   0  0  0  0  0  0  0  0  0  0  0  0
    4.0224   -3.1845    0.7920 H   0  0  0  0  0  0  0  0  0  0  0  0
    4.2877   -3.3542    2.5136 H   0  0  0  0  0  0  0  0  0  0  0  0
    5.7786   -1.8034    0.5601 H   0  0  0  0  0  0  0  0  0  0  0  0
    6.2005   -2.1581    2.2280 H   0  0  0  0  0  0  0  0  0  0  0  0
  1  2  1  0
  2  3  2  0
  3  4  1  0
  4  5  1  0
  5  6  2  0
  6  7  1  0
  6  8  1  0
  8  9  2  0
  9 10  1  0
 10 11  1  0
 11 12  1  0
 12 13  1  0
 13 14  1  0
 14 15  1  0
 15 16  2  0
  4 17  1  0
 17 18  2  0
 18 19  1  0
 19 20  2  0
 20 21  1  0
 21 22  2  0
  3 23  1  0
 23 24  2  0
 23 25  1  0
 25 26  1  0
 26 27  1  0
 27 28  1  0
 28 29  1  0
 29 30  1  0
 30 31  2  0
 31  2  1  0
 15  5  1  0
 14  9  1  0
 22 17  1  0
 30 25  1  0
  1 32  1  0
  4 33  1  0
  7 34  1  0
 11 35  1  0
 11 36  1  0
 12 37  1  0
 12 38  1  0
 13 39  1  0
 13 40  1  0
 18 41  1  0
 19 42  1  0
 21 43  1  0
 22 44  1  0
 26 45  1  0
 26 46  1  0
 27 47  1  0
 27 48  1  0
 28 49  1  0
 28 50  1  0
M  END
>  <Unnamed: 0>  (258) 
1601

>  <ID>  (258) 
TRAIN_1601

>  <Canonical_Smiles>  (258) 
OC1=C(C(C2=C(O)N=C3SCCCN3C2=O)c4ccncc4)C(=O)N5CCCSC5=N1

>  <Inhibition>  (258) 
26.963501

>  <TDC_conf_true_inhibitor>  (258) 
0

>  <TDC_conf_non_inhibitor>  (258) 
1

>  <split>  (258) 
1

$$$$
258
     RDKit          3D

 38 39  0  0  0  0  0  0  0  0999 V2000
   -2.9137    3.9419   -0.7057 C   0  0  0  0  0  0  0  0  0  0  0  0
   -1.8452    3.0087   -0.6247 O   0  0  0  0  0  0  0  0  0  0  0  0
   -2.1613    1.7079   -0.3529 C   0  0  0  0  0  0  0  0  0  0  0  0
   -3.4408    1.2260   -0.0923 C   0  0  0  0  0  0  0  0  0  0  0  0
   -3.6510   -0.1360    0.1805 C   0  0  0  0  0  0  0  0  0  0  0  0
   -2.5886   -1.0528    0.2008 C   0  0  0  0  0  0  0  0  0  0  0  0
   -2.7450   -2.3867    0.4659 O   0  0  0  0  0  0  0  0  0  0  0  0
   -4.0612   -2.8766    0.6882 C   0  0  0  0  0  0  0  0  0  0  0  0
   -1.2919   -0.5849   -0.0582 C   0  0  0  0  0  0  0  0  0  0  0  0
   -0.0845   -1.3123   -0.0880 N   0  0  0  0  0  0  0  0  0  0  0  0
   -0.0493   -2.7451    0.1214 C   0  0  0  0  0  0  0  0  0  0  0  0
    1.0469   -0.5688   -0.3919 C   0  0  0  0  0  0  0  0  0  0  0  0
    2.2486   -1.0500   -0.4557 N   0  0  0  0  0  0  0  0  0  0  0  0
    3.2816   -0.2219   -0.8111 C   0  0  0  0  0  0  0  0  0  0  0  0
    3.4021    0.2731   -1.9270 O   0  0  0  0  0  0  0  0  0  0  0  0
    4.3433   -0.0642    0.2785 C   0  0  0  0  0  0  0  0  0  0  0  0
    5.6084    0.5891   -0.2741 C   0  0  0  0  0  0  0  0  0  0  0  0
    3.7980    0.7414    1.4536 C   0  0  0  0  0  0  0  0  0  0  0  0
    0.6144    1.1418   -0.6315 S   0  0  0  0  0  0  0  0  0  0  0  0
   -1.1108    0.7904   -0.3301 C   0  0  0  0  0  0  0  0  0  0  0  0
   -3.6154    3.6718   -1.5018 H   0  0  0  0  0  0  0  0  0  0  0  0
   -3.4258    4.0385    0.2572 H   0  0  0  0  0  0  0  0  0  0  0  0
   -2.4871    4.9183   -0.9551 H   0  0  0  0  0  0  0  0  0  0  0  0
   -4.3067    1.8808   -0.0896 H   0  0  0  0  0  0  0  0  0  0  0  0
   -4.6729   -0.4465    0.3774 H   0  0  0  0  0  0  0  0  0  0  0  0
   -4.6952   -2.7207   -0.1907 H   0  0  0  0  0  0  0  0  0  0  0  0
   -4.5031   -2.4269    1.5833 H   0  0  0  0  0  0  0  0  0  0  0  0
   -3.9907   -3.9551    0.8593 H   0  0  0  0  0  0  0  0  0  0  0  0
    0.9676   -3.1459    0.0485 H   0  0  0  0  0  0  0  0  0  0  0  0
   -0.4103   -3.0049    1.1222 H   0  0  0  0  0  0  0  0  0  0  0  0
   -0.6430   -3.2682   -0.6359 H   0  0  0  0  0  0  0  0  0  0  0  0
    4.6077   -1.0716    0.6242 H   0  0  0  0  0  0  0  0  0  0  0  0
    6.0101    0.0120   -1.1141 H   0  0  0  0  0  0  0  0  0  0  0  0
    5.4092    1.6046   -0.6343 H   0  0  0  0  0  0  0  0  0  0  0  0
    6.3850    0.6477    0.4957 H   0  0  0  0  0  0  0  0  0  0  0  0
    2.9302    0.2486    1.9042 H   0  0  0  0  0  0  0  0  0  0  0  0
    3.4833    1.7416    1.1366 H   0  0  0  0  0  0  0  0  0  0  0  0
    4.5572    0.8548    2.2346 H   0  0  0  0  0  0  0  0  0  0  0  0
  1  2  1  0
  2  3  1  0
  3  4  2  0
  4  5  1  0
  5  6  2  0
  6  7  1  0
  7  8  1  0
  6  9  1  0
  9 10  1  0
 10 11  1  0
 10 12  1  0
 12 13  2  0
 13 14  1  0
 14 15  2  0
 14 16  1  0
 16 17  1  0
 16 18  1  0
 12 19  1  0
 19 20  1  0
 20  3  1  0
 20  9  2  0
  1 21  1  0
  1 22  1  0
  1 23  1  0
  4 24  1  0
  5 25  1  0
  8 26  1  0
  8 27  1  0
  8 28  1  0
 11 29  1  0
 11 30  1  0
 11 31  1  0
 16 32  1  0
 17 33  1  0
 17 34  1  0
 17 35  1  0
 18 36  1  0
 18 37  1  0
 18 38  1  0
M  END
>  <Unnamed: 0>  (259) 
1607

>  <ID>  (259) 
TRAIN_1607

>  <Canonical_Smiles>  (259) 
COc1ccc(OC)c2N(C)\C(=N\C(=O)C(C)C)\Sc12

>  <Inhibition>  (259) 
30.014072

>  <TDC_conf_true_inhibitor>  (259) 
1

>  <TDC_conf_non_inhibitor>  (259) 
0

>  <split>  (259) 
1

$$$$
259
     RDKit          3D

 35 36  0  0  0  0  0  0  0  0999 V2000
    4.2285   -2.0159    2.1028 C   0  0  0  0  0  0  0  0  0  0  0  0
    3.9248   -1.1942    0.8653 C   0  0  0  0  0  0  0  0  0  0  0  0
    2.6321   -0.5994    1.0304 O   0  0  0  0  0  0  0  0  0  0  0  0
    2.2395    0.1407   -0.0247 C   0  0  0  0  0  0  0  0  0  0  0  0
    2.8391    0.3752   -1.0547 O   0  0  0  0  0  0  0  0  0  0  0  0
    0.8676    0.6865    0.2597 C   0  0  0  0  0  0  0  0  0  0  0  0
    0.5760    1.9526    0.2166 N   0  0  0  0  0  0  0  0  0  0  0  0
   -0.7689    2.0318    0.4934 N   0  0  0  0  0  0  0  0  0  0  0  0
   -1.3908    0.7312    0.6726 C   0  0  0  0  0  0  0  0  0  0  0  0
   -0.2353   -0.2439    0.6226 C   0  0  0  0  0  0  0  0  0  0  0  0
   -0.5834   -1.2063   -0.4553 C   0  0  0  0  0  0  0  0  0  0  0  0
    0.1133   -2.1631   -0.7571 O   0  0  0  0  0  0  0  0  0  0  0  0
   -1.7458   -0.8167   -1.0497 N   0  0  0  0  0  0  0  0  0  0  0  0
   -2.3445   -1.5053   -2.1794 C   0  0  0  0  0  0  0  0  0  0  0  0
   -3.3460   -2.5522   -1.7197 C   0  0  0  0  0  0  0  0  0  0  0  0
   -2.2604    0.3316   -0.5057 C   0  0  0  0  0  0  0  0  0  0  0  0
   -3.2335    0.9407   -0.9221 O   0  0  0  0  0  0  0  0  0  0  0  0
   -1.4050    3.2202    0.7988 C   0  0  0  0  0  0  0  0  0  0  0  0
   -2.5420    3.2609    1.2667 O   0  0  0  0  0  0  0  0  0  0  0  0
   -0.5993    4.4707    0.5606 C   0  0  0  0  0  0  0  0  0  0  0  0
    4.2122   -1.3852    2.9979 H   0  0  0  0  0  0  0  0  0  0  0  0
    3.4692   -2.7917    2.2461 H   0  0  0  0  0  0  0  0  0  0  0  0
    5.2098   -2.4920    2.0239 H   0  0  0  0  0  0  0  0  0  0  0  0
    4.6800   -0.4091    0.7469 H   0  0  0  0  0  0  0  0  0  0  0  0
    3.9246   -1.8425   -0.0183 H   0  0  0  0  0  0  0  0  0  0  0  0
   -1.9667    0.6811    1.6018 H   0  0  0  0  0  0  0  0  0  0  0  0
   -0.0597   -0.7414    1.5789 H   0  0  0  0  0  0  0  0  0  0  0  0
   -2.8470   -0.7726   -2.8199 H   0  0  0  0  0  0  0  0  0  0  0  0
   -1.5529   -1.9867   -2.7638 H   0  0  0  0  0  0  0  0  0  0  0  0
   -2.8650   -3.3034   -1.0845 H   0  0  0  0  0  0  0  0  0  0  0  0
   -3.7868   -3.0626   -2.5813 H   0  0  0  0  0  0  0  0  0  0  0  0
   -4.1549   -2.0945   -1.1407 H   0  0  0  0  0  0  0  0  0  0  0  0
   -1.2504    5.3447    0.6554 H   0  0  0  0  0  0  0  0  0  0  0  0
   -0.1793    4.4677   -0.4490 H   0  0  0  0  0  0  0  0  0  0  0  0
    0.2010    4.5430    1.3017 H   0  0  0  0  0  0  0  0  0  0  0  0
  1  2  1  0
  2  3  1  0
  3  4  1  0
  4  5  2  0
  4  6  1  0
  6  7  2  0
  7  8  1  0
  8  9  1  0
  9 10  1  0
 10 11  1  0
 11 12  2  0
 11 13  1  0
 13 14  1  0
 14 15  1  0
 13 16  1  0
 16 17  2  0
  8 18  1  0
 18 19  2  0
 18 20  1  0
 10  6  1  0
 16  9  1  0
  1 21  1  0
  1 22  1  0
  1 23  1  0
  2 24  1  0
  2 25  1  0
  9 26  1  0
 10 27  1  0
 14 28  1  0
 14 29  1  0
 15 30  1  0
 15 31  1  0
 15 32  1  0
 20 33  1  0
 20 34  1  0
 20 35  1  0
M  END
>  <Unnamed: 0>  (260) 
1614

>  <ID>  (260) 
TRAIN_1614

>  <Canonical_Smiles>  (260) 
CCOC(=O)C1=NN(C2C1C(=O)N(CC)C2=O)C(=O)C

>  <Inhibition>  (260) 
0.5

>  <TDC_conf_true_inhibitor>  (260) 
0

>  <TDC_conf_non_inhibitor>  (260) 
1

>  <split>  (260) 
1

$$$$
260
     RDKit          3D

 38 40  0  0  0  0  0  0  0  0999 V2000
   -3.4158   -0.8851    2.1594 C   0  0  0  0  0  0  0  0  0  0  0  0
   -3.1129    0.4446    1.4873 C   0  0  0  0  0  0  0  0  0  0  0  0
   -3.5957    0.4606    0.0363 C   0  0  0  0  0  0  0  0  0  0  0  0
   -3.3175    1.7625   -0.6470 C   0  0  0  0  0  0  0  0  0  0  0  0
   -4.4165    2.5767   -0.9141 N   0  0  0  0  0  0  0  0  0  0  0  0
   -4.0654    3.7281   -1.4560 N   0  0  0  0  0  0  0  0  0  0  0  0
   -2.4147    3.8790   -1.6449 S   0  0  0  0  0  0  0  0  0  0  0  0
   -2.0965    2.3078   -1.0290 C   0  0  0  0  0  0  0  0  0  0  0  0
   -0.7353    1.8393   -0.9622 C   0  0  0  0  0  0  0  0  0  0  0  0
    0.2375    2.5763   -0.8249 O   0  0  0  0  0  0  0  0  0  0  0  0
   -0.5747    0.4697   -1.0919 N   0  0  0  0  0  0  0  0  0  0  0  0
    0.7551   -0.1178   -1.1893 C   0  0  0  0  0  0  0  0  0  0  0  0
    1.6618    0.1241    0.0197 C   0  0  0  0  0  0  0  0  0  0  0  0
    2.5719   -0.9903   -0.0198 N   0  0  0  0  0  0  0  0  0  0  0  0
    3.6612   -1.0982    0.8947 C   0  0  0  0  0  0  0  0  0  0  0  0
    4.7431   -0.0526    0.9572 C   0  0  0  0  0  0  0  0  0  0  0  0
    5.0492   -1.4108    0.4028 C   0  0  0  0  0  0  0  0  0  0  0  0
    2.0169   -2.0789   -0.6860 C   0  0  0  0  0  0  0  0  0  0  0  0
    2.4611   -3.2142   -0.7493 O   0  0  0  0  0  0  0  0  0  0  0  0
    0.7019   -1.6425   -1.2802 C   0  0  0  0  0  0  0  0  0  0  0  0
   -2.9151   -1.7090    1.6407 H   0  0  0  0  0  0  0  0  0  0  0  0
   -4.4919   -1.0856    2.1663 H   0  0  0  0  0  0  0  0  0  0  0  0
   -3.0657   -0.8741    3.1964 H   0  0  0  0  0  0  0  0  0  0  0  0
   -2.0333    0.6288    1.5349 H   0  0  0  0  0  0  0  0  0  0  0  0
   -3.5960    1.2526    2.0505 H   0  0  0  0  0  0  0  0  0  0  0  0
   -4.6776    0.2752    0.0187 H   0  0  0  0  0  0  0  0  0  0  0  0
   -3.1444   -0.3634   -0.5258 H   0  0  0  0  0  0  0  0  0  0  0  0
   -1.3268   -0.0219   -1.5575 H   0  0  0  0  0  0  0  0  0  0  0  0
    1.2338    0.2856   -2.0916 H   0  0  0  0  0  0  0  0  0  0  0  0
    1.1046    0.0907    0.9631 H   0  0  0  0  0  0  0  0  0  0  0  0
    2.2108    1.0671   -0.0506 H   0  0  0  0  0  0  0  0  0  0  0  0
    3.3717   -1.5619    1.8354 H   0  0  0  0  0  0  0  0  0  0  0  0
    5.1457    0.2007    1.9309 H   0  0  0  0  0  0  0  0  0  0  0  0
    4.7128    0.7764    0.2602 H   0  0  0  0  0  0  0  0  0  0  0  0
    5.2034   -1.5072   -0.6656 H   0  0  0  0  0  0  0  0  0  0  0  0
    5.6512   -2.0872    0.9981 H   0  0  0  0  0  0  0  0  0  0  0  0
    0.6138   -1.9783   -2.3170 H   0  0  0  0  0  0  0  0  0  0  0  0
   -0.1119   -2.0668   -0.6824 H   0  0  0  0  0  0  0  0  0  0  0  0
  1  2  1  0
  2  3  1  0
  3  4  1  0
  4  5  1  0
  5  6  2  0
  6  7  1  0
  7  8  1  0
  8  9  1  0
  9 10  2  0
  9 11  1  0
 11 12  1  0
 12 13  1  0
 13 14  1  0
 14 15  1  0
 15 16  1  0
 16 17  1  0
 14 18  1  0
 18 19  2  0
 18 20  1  0
  8  4  2  0
 20 12  1  0
 17 15  1  0
  1 21  1  0
  1 22  1  0
  1 23  1  0
  2 24  1  0
  2 25  1  0
  3 26  1  0
  3 27  1  0
 11 28  1  0
 12 29  1  0
 13 30  1  0
 13 31  1  0
 15 32  1  0
 16 33  1  0
 16 34  1  0
 17 35  1  0
 17 36  1  0
 20 37  1  0
 20 38  1  0
M  END
>  <Unnamed: 0>  (261) 
1620

>  <ID>  (261) 
TRAIN_1620

>  <Canonical_Smiles>  (261) 
CCCc1nnsc1C(=O)NC2CN(C3CC3)C(=O)C2

>  <Inhibition>  (261) 
7.501346

>  <TDC_conf_true_inhibitor>  (261) 
0

>  <TDC_conf_non_inhibitor>  (261) 
1

>  <split>  (261) 
1

$$$$
261
     RDKit          3D

 39 41  0  0  0  0  0  0  0  0999 V2000
   -3.7757    2.0159    2.2962 C   0  0  0  0  0  0  0  0  0  0  0  0
   -4.3092    1.2612    1.1417 C   0  0  0  0  0  0  0  0  0  0  0  0
   -5.6513    0.8943    1.1771 N   0  0  0  0  0  0  0  0  0  0  0  0
   -6.0142    0.2442    0.0903 N   0  0  0  0  0  0  0  0  0  0  0  0
   -4.7663    0.0590   -1.0046 S   0  0  0  0  0  0  0  0  0  0  0  0
   -3.6330    0.8391    0.0078 C   0  0  0  0  0  0  0  0  0  0  0  0
   -2.2721    0.9930   -0.4281 C   0  0  0  0  0  0  0  0  0  0  0  0
   -2.0015    1.5005   -1.5165 O   0  0  0  0  0  0  0  0  0  0  0  0
   -1.2475    0.5606    0.4266 N   0  0  0  0  0  0  0  0  0  0  0  0
    0.1250    0.8600    0.0208 C   0  0  0  0  0  0  0  0  0  0  0  0
    1.1424    0.4556    1.0834 C   0  0  0  0  0  0  0  0  0  0  0  0
    1.0547   -1.0480    1.4079 C   0  0  0  0  0  0  0  0  0  0  0  0
    1.8022   -1.9589    0.4091 C   0  0  0  0  0  0  0  0  0  0  0  0
    3.6092   -1.7335    0.3929 S   0  0  0  0  0  0  0  0  0  0  0  0
    3.8168   -0.9969   -1.1617 C   0  0  0  0  0  0  0  0  0  0  0  0
    3.0336   -0.0761   -1.6165 N   0  0  0  0  0  0  0  0  0  0  0  0
    3.5349    0.3742   -2.9310 C   0  0  0  0  0  0  0  0  0  0  0  0
    4.3630   -0.7282   -3.5775 C   0  0  0  0  0  0  0  0  0  0  0  0
    5.1220   -1.5485   -2.1680 S   0  0  0  0  0  0  0  0  0  0  0  0
   -0.4214   -1.5135    1.4871 C   0  0  0  0  0  0  0  0  0  0  0  0
   -1.4231   -0.3594    1.5552 C   0  0  0  0  0  0  0  0  0  0  0  0
   -4.4875    2.7844    2.6196 H   0  0  0  0  0  0  0  0  0  0  0  0
   -3.6016    1.3365    3.1382 H   0  0  0  0  0  0  0  0  0  0  0  0
   -2.8275    2.5073    2.0577 H   0  0  0  0  0  0  0  0  0  0  0  0
    0.3170    0.3377   -0.9219 H   0  0  0  0  0  0  0  0  0  0  0  0
    0.1930    1.9355   -0.1787 H   0  0  0  0  0  0  0  0  0  0  0  0
    0.9367    1.0278    2.0001 H   0  0  0  0  0  0  0  0  0  0  0  0
    2.1505    0.7558    0.7834 H   0  0  0  0  0  0  0  0  0  0  0  0
    1.5079   -1.1999    2.3951 H   0  0  0  0  0  0  0  0  0  0  0  0
    1.6422   -3.0033    0.7060 H   0  0  0  0  0  0  0  0  0  0  0  0
    1.3888   -1.8649   -0.6029 H   0  0  0  0  0  0  0  0  0  0  0  0
    4.1237    1.2880   -2.7934 H   0  0  0  0  0  0  0  0  0  0  0  0
    2.6885    0.6320   -3.5746 H   0  0  0  0  0  0  0  0  0  0  0  0
    3.7159   -1.4437   -4.0969 H   0  0  0  0  0  0  0  0  0  0  0  0
    5.1042   -0.3377   -4.2793 H   0  0  0  0  0  0  0  0  0  0  0  0
   -0.5491   -2.1660    2.3605 H   0  0  0  0  0  0  0  0  0  0  0  0
   -0.6746   -2.1276    0.6110 H   0  0  0  0  0  0  0  0  0  0  0  0
   -1.2816    0.2178    2.4770 H   0  0  0  0  0  0  0  0  0  0  0  0
   -2.4350   -0.7744    1.5711 H   0  0  0  0  0  0  0  0  0  0  0  0
  1  2  1  0
  2  3  1  0
  3  4  2  0
  4  5  1  0
  5  6  1  0
  6  7  1  0
  7  8  2  0
  7  9  1  0
  9 10  1  0
 10 11  1  0
 11 12  1  0
 12 13  1  0
 13 14  1  0
 14 15  1  0
 15 16  2  0
 16 17  1  0
 17 18  1  0
 18 19  1  0
 12 20  1  0
 20 21  1  0
  6  2  2  0
 21  9  1  0
 19 15  1  0
  1 22  1  0
  1 23  1  0
  1 24  1  0
 10 25  1  0
 10 26  1  0
 11 27  1  0
 11 28  1  0
 12 29  1  0
 13 30  1  0
 13 31  1  0
 17 32  1  0
 17 33  1  0
 18 34  1  0
 18 35  1  0
 20 36  1  0
 20 37  1  0
 21 38  1  0
 21 39  1  0
M  END
>  <Unnamed: 0>  (262) 
1630

>  <ID>  (262) 
TRAIN_1630

>  <Canonical_Smiles>  (262) 
Cc1nnsc1C(=O)N2CCC(CSC3=NCCS3)CC2

>  <Inhibition>  (262) 
53.138301

>  <TDC_conf_true_inhibitor>  (262) 
0

>  <TDC_conf_non_inhibitor>  (262) 
0

>  <split>  (262) 
1

$$$$
262
     RDKit          3D

 48 51  0  0  0  0  0  0  0  0999 V2000
    1.2966   -4.2227    1.5520 O   0  0  0  0  0  0  0  0  0  0  0  0
    0.5064   -3.3263    1.2647 C   0  0  0  0  0  0  0  0  0  0  0  0
   -0.9756   -3.4559    1.6276 C   0  0  0  0  0  0  0  0  0  0  0  0
   -1.8337   -2.5796    0.8257 N   0  0  0  0  0  0  0  0  0  0  0  0
   -1.8990   -1.2598    1.2069 N   0  0  0  0  0  0  0  0  0  0  0  0
   -2.6293   -0.4383    0.5107 C   0  0  0  0  0  0  0  0  0  0  0  0
   -2.6836    0.9857    1.0595 C   0  0  0  0  0  0  0  0  0  0  0  0
   -2.7406    2.0908    0.0203 C   0  0  0  0  0  0  0  0  0  0  0  0
   -4.1656    2.3957   -0.4323 C   0  0  0  0  0  0  0  0  0  0  0  0
   -5.0094    1.1619   -0.7441 C   0  0  0  0  0  0  0  0  0  0  0  0
   -4.2396    0.1033   -1.5267 C   0  0  0  0  0  0  0  0  0  0  0  0
   -3.4018   -0.8343   -0.7012 C   0  0  0  0  0  0  0  0  0  0  0  0
   -3.3065   -2.1286   -1.0365 C   0  0  0  0  0  0  0  0  0  0  0  0
   -2.4837   -3.0909   -0.2821 C   0  0  0  0  0  0  0  0  0  0  0  0
   -2.4216   -4.2535   -0.6676 O   0  0  0  0  0  0  0  0  0  0  0  0
    0.8173   -2.0946    0.7423 N   0  0  0  0  0  0  0  0  0  0  0  0
    2.0444   -1.6650    0.3441 C   0  0  0  0  0  0  0  0  0  0  0  0
    3.1915   -2.3409    0.3439 N   0  0  0  0  0  0  0  0  0  0  0  0
    4.0475   -1.4392   -0.1488 N   0  0  0  0  0  0  0  0  0  0  0  0
    3.4215   -0.2603   -0.4294 C   0  0  0  0  0  0  0  0  0  0  0  0
    2.1431   -0.3816   -0.1313 N   0  0  0  0  0  0  0  0  0  0  0  0
    4.1388    0.9088   -0.9910 C   0  0  0  0  0  0  0  0  0  0  0  0
    3.8954    2.1924   -0.2153 C   0  0  0  0  0  0  0  0  0  0  0  0
    5.1909    2.9341   -0.4258 C   0  0  0  0  0  0  0  0  0  0  0  0
    6.2017    1.8108   -0.3719 C   0  0  0  0  0  0  0  0  0  0  0  0
    5.5588    0.6500   -0.9214 O   0  0  0  0  0  0  0  0  0  0  0  0
   -1.2739   -4.4994    1.4835 H   0  0  0  0  0  0  0  0  0  0  0  0
   -1.1012   -3.1951    2.6841 H   0  0  0  0  0  0  0  0  0  0  0  0
   -3.5173    1.0522    1.7683 H   0  0  0  0  0  0  0  0  0  0  0  0
   -1.7673    1.1343    1.6472 H   0  0  0  0  0  0  0  0  0  0  0  0
   -2.1123    1.8391   -0.8425 H   0  0  0  0  0  0  0  0  0  0  0  0
   -2.3201    3.0099    0.4468 H   0  0  0  0  0  0  0  0  0  0  0  0
   -4.1156    3.0369   -1.3212 H   0  0  0  0  0  0  0  0  0  0  0  0
   -4.6794    2.9831    0.3388 H   0  0  0  0  0  0  0  0  0  0  0  0
   -5.4154    0.7340    0.1810 H   0  0  0  0  0  0  0  0  0  0  0  0
   -5.8761    1.4872   -1.3330 H   0  0  0  0  0  0  0  0  0  0  0  0
   -3.6085    0.5790   -2.2879 H   0  0  0  0  0  0  0  0  0  0  0  0
   -4.9827   -0.4858   -2.0817 H   0  0  0  0  0  0  0  0  0  0  0  0
   -3.8162   -2.5452   -1.8979 H   0  0  0  0  0  0  0  0  0  0  0  0
    0.0717   -1.4144    0.6585 H   0  0  0  0  0  0  0  0  0  0  0  0
    5.0284   -1.6708   -0.2655 H   0  0  0  0  0  0  0  0  0  0  0  0
    3.8823    1.0358   -2.0489 H   0  0  0  0  0  0  0  0  0  0  0  0
    3.0183    2.7418   -0.5703 H   0  0  0  0  0  0  0  0  0  0  0  0
    3.7552    1.9947    0.8553 H   0  0  0  0  0  0  0  0  0  0  0  0
    5.1961    3.3962   -1.4201 H   0  0  0  0  0  0  0  0  0  0  0  0
    5.3777    3.7136    0.3172 H   0  0  0  0  0  0  0  0  0  0  0  0
    6.4830    1.5786    0.6609 H   0  0  0  0  0  0  0  0  0  0  0  0
    7.1091    2.0325   -0.9403 H   0  0  0  0  0  0  0  0  0  0  0  0
  1  2  2  0
  2  3  1  0
  3  4  1  0
  4  5  1  0
  5  6  2  0
  6  7  1  0
  7  8  1  0
  8  9  1  0
  9 10  1  0
 10 11  1  0
 11 12  1  0
 12 13  2  0
 13 14  1  0
 14 15  2  0
  2 16  1  0
 16 17  1  0
 17 18  2  0
 18 19  1  0
 19 20  1  0
 20 21  2  0
 20 22  1  0
 22 23  1  0
 23 24  1  0
 24 25  1  0
 25 26  1  0
 14  4  1  0
 12  6  1  0
 21 17  1  0
 26 22  1  0
  3 27  1  0
  3 28  1  0
  7 29  1  0
  7 30  1  0
  8 31  1  0
  8 32  1  0
  9 33  1  0
  9 34  1  0
 10 35  1  0
 10 36  1  0
 11 37  1  0
 11 38  1  0
 13 39  1  0
 16 40  1  0
 19 41  1  0
 22 42  1  0
 23 43  1  0
 23 44  1  0
 24 45  1  0
 24 46  1  0
 25 47  1  0
 25 48  1  0
M  END
>  <Unnamed: 0>  (263) 
1632

>  <ID>  (263) 
TRAIN_1632

>  <Canonical_Smiles>  (263) 
O=C(CN1N=C2CCCCCC2=CC1=O)Nc3n[nH]c(n3)C4CCCO4

>  <Inhibition>  (263) 
27.769574

>  <TDC_conf_true_inhibitor>  (263) 
0

>  <TDC_conf_non_inhibitor>  (263) 
1

>  <split>  (263) 
1

$$$$
263
     RDKit          3D

 41 43  0  0  0  0  0  0  0  0999 V2000
   -6.4743   -0.5360    0.1031 C   0  0  0  0  0  0  0  0  0  0  0  0
   -5.5156    0.4958    0.6965 C   0  0  0  0  0  0  0  0  0  0  0  0
   -5.8716    1.9125    0.2468 C   0  0  0  0  0  0  0  0  0  0  0  0
   -4.1251    0.1709    0.4007 N   0  0  0  0  0  0  0  0  0  0  0  0
   -3.5489    0.1017   -0.8393 C   0  0  0  0  0  0  0  0  0  0  0  0
   -2.2757   -0.2194   -0.7683 N   0  0  0  0  0  0  0  0  0  0  0  0
   -2.0208   -0.3669    0.5851 C   0  0  0  0  0  0  0  0  0  0  0  0
   -3.1603   -0.1241    1.3244 C   0  0  0  0  0  0  0  0  0  0  0  0
   -0.4574   -0.8048    1.2135 S   0  0  0  0  0  6  0  0  0  0  0  0
   -0.0300    0.3450    1.9811 O   0  0  0  0  0  0  0  0  0  0  0  0
   -0.6643   -2.1033    1.8140 O   0  0  0  0  0  0  0  0  0  0  0  0
    0.6125   -1.0106   -0.0710 N   0  0  0  0  0  0  0  0  0  0  0  0
    0.8718    0.1882   -0.8816 C   0  0  0  0  0  0  0  0  0  0  0  0
    2.2167    0.0436   -1.4942 C   0  0  0  0  0  0  0  0  0  0  0  0
    2.4808   -0.2139   -2.7618 N   0  0  0  0  0  0  0  0  0  0  0  0
    3.8469   -0.2494   -2.9200 N   0  0  0  0  0  0  0  0  0  0  0  0
    4.3932   -0.0196   -1.7472 C   0  0  0  0  0  0  0  0  0  0  0  0
    5.7461    0.0606   -1.3179 C   0  0  0  0  0  0  0  0  0  0  0  0
    6.0339    0.3162   -0.0203 C   0  0  0  0  0  0  0  0  0  0  0  0
    4.9484    0.5097    0.9511 C   0  0  0  0  0  0  0  0  0  0  0  0
    3.6697    0.4346    0.5424 C   0  0  0  0  0  0  0  0  0  0  0  0
    3.3995    0.1729   -0.7995 N   0  0  0  0  0  0  0  0  0  0  0  0
    7.4428    0.4142    0.4970 C   0  0  0  0  0  0  0  0  0  0  0  0
    8.3738    0.2205   -0.4717 F   0  0  0  0  0  0  0  0  0  0  0  0
    7.6912    1.6330    1.0409 F   0  0  0  0  0  0  0  0  0  0  0  0
    7.6864   -0.5054    1.4652 F   0  0  0  0  0  0  0  0  0  0  0  0
   -6.2171   -1.5468    0.4386 H   0  0  0  0  0  0  0  0  0  0  0  0
   -6.4459   -0.5320   -0.9920 H   0  0  0  0  0  0  0  0  0  0  0  0
   -7.5042   -0.3297    0.4131 H   0  0  0  0  0  0  0  0  0  0  0  0
   -5.6141    0.4560    1.7891 H   0  0  0  0  0  0  0  0  0  0  0  0
   -6.8880    2.1734    0.5600 H   0  0  0  0  0  0  0  0  0  0  0  0
   -5.8186    2.0166   -0.8425 H   0  0  0  0  0  0  0  0  0  0  0  0
   -5.1850    2.6455    0.6845 H   0  0  0  0  0  0  0  0  0  0  0  0
   -4.0979    0.2918   -1.7535 H   0  0  0  0  0  0  0  0  0  0  0  0
   -3.3432   -0.1453    2.3903 H   0  0  0  0  0  0  0  0  0  0  0  0
    0.3304   -1.8108   -0.6408 H   0  0  0  0  0  0  0  0  0  0  0  0
    0.1215    0.2672   -1.6741 H   0  0  0  0  0  0  0  0  0  0  0  0
    0.8416    1.1070   -0.2881 H   0  0  0  0  0  0  0  0  0  0  0  0
    6.5236   -0.0891   -2.0612 H   0  0  0  0  0  0  0  0  0  0  0  0
    5.1971    0.7059    1.9914 H   0  0  0  0  0  0  0  0  0  0  0  0
    2.8302    0.5611    1.2164 H   0  0  0  0  0  0  0  0  0  0  0  0
  1  2  1  0
  2  3  1  0
  2  4  1  0
  4  5  1  0
  5  6  2  0
  6  7  1  0
  7  8  2  0
  7  9  1  0
  9 10  2  0
  9 11  2  0
  9 12  1  0
 12 13  1  0
 13 14  1  0
 14 15  2  0
 15 16  1  0
 16 17  2  0
 17 18  1  0
 18 19  2  0
 19 20  1  0
 20 21  2  0
 21 22  1  0
 19 23  1  0
 23 24  1  0
 23 25  1  0
 23 26  1  0
  8  4  1  0
 22 14  1  0
 22 17  1  0
  1 27  1  0
  1 28  1  0
  1 29  1  0
  2 30  1  0
  3 31  1  0
  3 32  1  0
  3 33  1  0
  5 34  1  0
  8 35  1  0
 12 36  1  0
 13 37  1  0
 13 38  1  0
 18 39  1  0
 20 40  1  0
 21 41  1  0
M  END
>  <Unnamed: 0>  (264) 
1640

>  <ID>  (264) 
TRAIN_1640

>  <Canonical_Smiles>  (264) 
CC(C)n1cnc(c1)S(=O)(=O)NCc2nnc3cc(ccn23)C(F)(F)F

>  <Inhibition>  (264) 
0.5

>  <TDC_conf_true_inhibitor>  (264) 
0

>  <TDC_conf_non_inhibitor>  (264) 
1

>  <split>  (264) 
1

$$$$
264
     RDKit          3D

 48 50  0  0  0  0  0  0  0  0999 V2000
    0.8736   -3.9437    0.1326 C   0  0  0  0  0  0  0  0  0  0  0  0
    0.2951   -2.5703    0.1034 C   0  0  0  0  0  0  0  0  0  0  0  0
   -1.0032   -2.2340   -0.2809 C   0  0  0  0  0  0  0  0  0  0  0  0
   -2.1106   -3.1112   -0.7665 C   0  0  0  0  0  0  0  0  0  0  0  0
   -1.1533   -0.8630   -0.1374 N   0  0  0  0  0  0  0  0  0  0  0  0
   -2.3763   -0.0993   -0.4012 C   0  0  0  0  0  0  0  0  0  0  0  0
   -2.2416    0.8382   -1.6180 C   0  0  0  0  0  0  0  0  0  0  0  0
   -3.1706    2.0526   -1.5455 C   0  0  0  0  0  0  0  0  0  0  0  0
   -4.4910    1.7139   -0.8663 C   0  0  0  0  0  0  0  0  0  0  0  0
   -4.2953    1.2396    0.5755 C   0  0  0  0  0  0  0  0  0  0  0  0
   -2.9174    0.6260    0.8399 C   0  0  0  0  0  0  0  0  0  0  0  0
    0.0333   -0.3230    0.2964 C   0  0  0  0  0  0  0  0  0  0  0  0
    0.2111    1.0085    0.5144 N   0  0  0  0  0  0  0  0  0  0  0  0
    1.4144    1.2706    0.9262 C   0  0  0  0  0  0  0  0  0  0  0  0
    2.4422    0.3610    1.1350 N   0  0  0  0  0  0  0  0  0  0  0  0
    3.7400    0.8598    1.6003 C   0  0  0  0  0  0  0  0  0  0  0  0
    4.7465    1.0030    0.4541 C   0  0  0  0  0  0  0  0  0  0  0  0
    4.3827    2.0982   -0.5378 C   0  0  0  0  0  0  0  0  0  0  0  0
    4.3106    3.3545    0.1234 O   0  0  0  0  0  0  0  0  0  0  0  0
    2.3030   -1.0042    0.9108 C   0  0  0  0  0  0  0  0  0  0  0  0
    3.2292   -1.8920    1.0671 N   0  0  0  0  0  0  0  0  0  0  0  0
    0.9554   -1.3473    0.4548 C   0  0  0  0  0  0  0  0  0  0  0  0
    0.1417   -4.7135   -0.1236 H   0  0  0  0  0  0  0  0  0  0  0  0
    1.2454   -4.1796    1.1350 H   0  0  0  0  0  0  0  0  0  0  0  0
    1.6984   -4.0248   -0.5826 H   0  0  0  0  0  0  0  0  0  0  0  0
   -2.4818   -2.7628   -1.7360 H   0  0  0  0  0  0  0  0  0  0  0  0
   -2.9379   -3.1145   -0.0495 H   0  0  0  0  0  0  0  0  0  0  0  0
   -1.7885   -4.1463   -0.9025 H   0  0  0  0  0  0  0  0  0  0  0  0
   -3.1444   -0.8360   -0.6648 H   0  0  0  0  0  0  0  0  0  0  0  0
   -2.4725    0.2601   -2.5228 H   0  0  0  0  0  0  0  0  0  0  0  0
   -1.2150    1.1951   -1.7578 H   0  0  0  0  0  0  0  0  0  0  0  0
   -3.3524    2.4347   -2.5564 H   0  0  0  0  0  0  0  0  0  0  0  0
   -2.6745    2.8585   -0.9902 H   0  0  0  0  0  0  0  0  0  0  0  0
   -5.1580    2.5834   -0.8789 H   0  0  0  0  0  0  0  0  0  0  0  0
   -4.9966    0.9269   -1.4402 H   0  0  0  0  0  0  0  0  0  0  0  0
   -4.4428    2.0797    1.2650 H   0  0  0  0  0  0  0  0  0  0  0  0
   -5.0782    0.5095    0.8145 H   0  0  0  0  0  0  0  0  0  0  0  0
   -2.2356    1.4289    1.1433 H   0  0  0  0  0  0  0  0  0  0  0  0
   -2.9811   -0.0590    1.6944 H   0  0  0  0  0  0  0  0  0  0  0  0
    1.6922    2.3166    1.1399 H   0  0  0  0  0  0  0  0  0  0  0  0
    4.1500    0.1732    2.3520 H   0  0  0  0  0  0  0  0  0  0  0  0
    3.6230    1.8157    2.1259 H   0  0  0  0  0  0  0  0  0  0  0  0
    5.7210    1.2428    0.8972 H   0  0  0  0  0  0  0  0  0  0  0  0
    4.8586    0.0549   -0.0829 H   0  0  0  0  0  0  0  0  0  0  0  0
    5.1345    2.1655   -1.3313 H   0  0  0  0  0  0  0  0  0  0  0  0
    3.4179    1.9033   -1.0144 H   0  0  0  0  0  0  0  0  0  0  0  0
    5.2232    3.6672    0.2545 H   0  0  0  0  0  0  0  0  0  0  0  0
    2.8759   -2.8172    0.8318 H   0  0  0  0  0  0  0  0  0  0  0  0
  1  2  1  0
  2  3  2  0
  3  4  1  0
  3  5  1  0
  5  6  1  0
  6  7  1  0
  7  8  1  0
  8  9  1  0
  9 10  1  0
 10 11  1  0
  5 12  1  0
 12 13  1  0
 13 14  2  0
 14 15  1  0
 15 16  1  0
 16 17  1  0
 17 18  1  0
 18 19  1  0
 15 20  1  0
 20 21  2  3
 20 22  1  0
 22  2  1  0
 11  6  1  0
 22 12  2  0
  1 23  1  0
  1 24  1  0
  1 25  1  0
  4 26  1  0
  4 27  1  0
  4 28  1  0
  6 29  1  0
  7 30  1  0
  7 31  1  0
  8 32  1  0
  8 33  1  0
  9 34  1  0
  9 35  1  0
 10 36  1  0
 10 37  1  0
 11 38  1  0
 11 39  1  0
 14 40  1  0
 16 41  1  0
 16 42  1  0
 17 43  1  0
 17 44  1  0
 18 45  1  0
 18 46  1  0
 19 47  1  0
 21 48  1  0
M  END
>  <Unnamed: 0>  (265) 
1644

>  <ID>  (265) 
TRAIN_1644

>  <Canonical_Smiles>  (265) 
Cc1c(C)n(C2CCCCC2)c3N=CN(CCCO)C(=N)c13

>  <Inhibition>  (265) 
9.153449

>  <TDC_conf_true_inhibitor>  (265) 
0

>  <TDC_conf_non_inhibitor>  (265) 
1

>  <split>  (265) 
1

$$$$
265
     RDKit          3D

 49 50  0  0  0  0  0  0  0  0999 V2000
    6.0150   -1.5438    1.0959 C   0  0  0  0  0  0  0  0  0  0  0  0
    5.9950   -1.5587   -0.6841 S   0  0  0  0  0  6  0  0  0  0  0  0
    5.9835   -2.9347   -1.1270 O   0  0  0  0  0  0  0  0  0  0  0  0
    6.9569   -0.6043   -1.1845 O   0  0  0  0  0  0  0  0  0  0  0  0
    4.4525   -0.9681   -1.0108 N   0  0  0  0  0  0  0  0  0  0  0  0
    4.2820    0.4932   -1.0670 C   0  0  0  0  0  0  0  0  0  0  0  0
    2.8026    0.8793   -0.9063 C   0  0  0  0  0  0  0  0  0  0  0  0
    1.9062    0.3012   -2.0087 C   0  0  0  0  0  0  0  0  0  0  0  0
    0.4901    0.8824   -1.9392 C   0  0  0  0  0  0  0  0  0  0  0  0
    0.0113    1.1533   -0.5033 C   0  0  0  0  0  0  0  0  0  0  0  0
    0.7487    0.2861    0.5200 C   0  0  0  0  0  0  0  0  0  0  0  0
    2.2600    0.5320    0.4950 C   0  0  0  0  0  0  0  0  0  0  0  0
   -1.4999    1.0025   -0.3712 C   0  0  0  0  0  0  0  0  0  0  0  0
   -2.2187    1.9548   -0.0809 O   0  0  0  0  0  0  0  0  0  0  0  0
   -1.9908   -0.2663   -0.5818 N   0  0  0  0  0  0  0  0  0  0  0  0
   -3.4077   -0.5662   -0.5360 C   0  0  0  0  0  0  0  0  0  0  0  0
   -3.8345   -1.1251    0.8322 C   0  0  0  0  0  0  0  0  0  0  0  0
   -3.7931   -0.0952    1.9758 C   0  0  0  0  0  0  0  0  0  0  0  0
   -4.9649    0.8611    1.7734 C   0  0  0  0  0  0  0  0  0  0  0  0
   -6.2874   -0.1588    1.1378 S   0  0  0  0  0  6  0  0  0  0  0  0
   -7.1996   -0.4785    2.2159 O   0  0  0  0  0  0  0  0  0  0  0  0
   -6.7417    0.3844   -0.1251 O   0  0  0  0  0  0  0  0  0  0  0  0
   -5.2912   -1.6030    0.7976 C   0  0  0  0  0  0  0  0  0  0  0  0
    5.1969   -2.1656    1.4641 H   0  0  0  0  0  0  0  0  0  0  0  0
    5.9159   -0.5153    1.4465 H   0  0  0  0  0  0  0  0  0  0  0  0
    6.9715   -1.9564    1.4238 H   0  0  0  0  0  0  0  0  0  0  0  0
    4.0381   -1.4979   -1.7797 H   0  0  0  0  0  0  0  0  0  0  0  0
    4.8610    0.9746   -0.2712 H   0  0  0  0  0  0  0  0  0  0  0  0
    4.6536    0.8554   -2.0321 H   0  0  0  0  0  0  0  0  0  0  0  0
    2.7627    1.9742   -1.0042 H   0  0  0  0  0  0  0  0  0  0  0  0
    1.8453   -0.7899   -1.9111 H   0  0  0  0  0  0  0  0  0  0  0  0
    2.3303    0.5051   -2.9990 H   0  0  0  0  0  0  0  0  0  0  0  0
   -0.1896    0.2178   -2.4850 H   0  0  0  0  0  0  0  0  0  0  0  0
    0.4679    1.8328   -2.4891 H   0  0  0  0  0  0  0  0  0  0  0  0
    0.2341    2.2037   -0.2666 H   0  0  0  0  0  0  0  0  0  0  0  0
    0.5635   -0.7764    0.3162 H   0  0  0  0  0  0  0  0  0  0  0  0
    0.3638    0.4688    1.5308 H   0  0  0  0  0  0  0  0  0  0  0  0
    2.7566   -0.3514    0.9130 H   0  0  0  0  0  0  0  0  0  0  0  0
    2.5034    1.3599    1.1733 H   0  0  0  0  0  0  0  0  0  0  0  0
   -1.3530   -1.0050   -0.8497 H   0  0  0  0  0  0  0  0  0  0  0  0
   -3.5820   -1.3199   -1.3123 H   0  0  0  0  0  0  0  0  0  0  0  0
   -3.9781    0.3252   -0.8149 H   0  0  0  0  0  0  0  0  0  0  0  0
   -3.1800   -1.9710    1.0768 H   0  0  0  0  0  0  0  0  0  0  0  0
   -2.8422    0.4390    2.0439 H   0  0  0  0  0  0  0  0  0  0  0  0
   -3.9257   -0.6236    2.9291 H   0  0  0  0  0  0  0  0  0  0  0  0
   -5.2810    1.3311    2.7071 H   0  0  0  0  0  0  0  0  0  0  0  0
   -4.7401    1.6289    1.0293 H   0  0  0  0  0  0  0  0  0  0  0  0
   -5.4775   -2.3221    1.6018 H   0  0  0  0  0  0  0  0  0  0  0  0
   -5.5895   -2.0396   -0.1583 H   0  0  0  0  0  0  0  0  0  0  0  0
  1  2  1  0
  2  3  2  0
  2  4  2  0
  2  5  1  0
  5  6  1  0
  6  7  1  0
  7  8  1  0
  8  9  1  0
  9 10  1  0
 10 11  1  0
 11 12  1  0
 10 13  1  0
 13 14  2  0
 13 15  1  0
 15 16  1  0
 16 17  1  0
 17 18  1  0
 18 19  1  0
 19 20  1  0
 20 21  2  0
 20 22  2  0
 20 23  1  0
 12  7  1  0
 23 17  1  0
  1 24  1  0
  1 25  1  0
  1 26  1  0
  5 27  1  0
  6 28  1  0
  6 29  1  0
  7 30  1  0
  8 31  1  0
  8 32  1  0
  9 33  1  0
  9 34  1  0
 10 35  1  0
 11 36  1  0
 11 37  1  0
 12 38  1  0
 12 39  1  0
 15 40  1  0
 16 41  1  0
 16 42  1  0
 17 43  1  0
 18 44  1  0
 18 45  1  0
 19 46  1  0
 19 47  1  0
 23 48  1  0
 23 49  1  0
M  END
>  <Unnamed: 0>  (266) 
1666

>  <ID>  (266) 
TRAIN_1666

>  <Canonical_Smiles>  (266) 
CS(=O)(=O)NCC1CCC(CC1)C(=O)NCC2CCS(=O)(=O)C2

>  <Inhibition>  (266) 
6.375623

>  <TDC_conf_true_inhibitor>  (266) 
0

>  <TDC_conf_non_inhibitor>  (266) 
1

>  <split>  (266) 
1

$$$$
266
     RDKit          3D

 36 37  0  0  0  0  0  0  0  0999 V2000
    0.7595    0.0000    0.0000 Br  0  0  0  0  0  0  0  0  0  0  0  0
    3.7170    1.8460    0.3335 C   0  0  0  0  0  0  0  0  0  0  0  0
    3.7345    0.4354    0.9377 C   0  0  0  0  0  0  0  0  0  0  0  0
    2.7135   -0.2818    0.2758 O   0  0  0  0  0  0  0  0  0  0  0  0
    2.4460   -1.6133    0.5788 C   0  0  0  0  0  0  0  0  0  0  0  0
    3.1427   -2.1624    1.4632 O   0  0  0  0  0  0  0  0  0  0  0  0
    1.3898   -2.3331   -0.1149 C   0  0  0  0  0  0  0  0  0  0  0  0
    0.7324   -1.4201   -1.1139 N   0  0  0  0  0  0  0  0  0  0  0  0
    1.2881   -1.4038   -2.3556 C   0  0  0  0  0  0  0  0  0  0  0  0
    2.2453   -1.9925   -2.8605 N   0  0  0  0  0  0  0  0  0  0  0  0
    0.2027   -0.1969   -3.2126 S   0  0  0  0  0  0  0  0  0  0  0  0
   -0.8507    0.1277   -1.8011 C   0  0  0  0  0  0  0  0  0  0  0  0
   -1.9464    0.9558   -1.6403 C   0  0  0  0  0  0  0  0  0  0  0  0
   -2.5857    1.0069   -0.4078 C   0  0  0  0  0  0  0  0  0  0  0  0
   -3.6710    1.7904   -0.1520 O   0  0  0  0  0  0  0  0  0  0  0  0
   -4.5327    1.6409    0.9567 C   0  0  0  0  0  0  0  0  0  0  0  0
   -4.1193    0.5181    1.8625 C   0  0  0  0  0  0  0  0  0  0  0  0
   -2.7177    0.2731    1.8044 O   0  0  0  0  0  0  0  0  0  0  0  0
   -2.0658    0.2099    0.5816 C   0  0  0  0  0  0  0  0  0  0  0  0
   -0.9918   -0.5903    0.3954 C   0  0  0  0  0  0  0  0  0  0  0  0
   -0.2987   -0.6807   -0.8496 C   0  0  0  0  0  0  0  0  0  0  0  0
   -0.7595    0.0000    0.0000 H   0  0  0  0  0  0  0  0  0  0  0  0
    2.6540    2.1065    0.1237 H   0  0  0  0  0  0  0  0  0  0  0  0
    4.1618    2.5355    1.0632 H   0  0  0  0  0  0  0  0  0  0  0  0
    4.2770    1.8336   -0.6295 H   0  0  0  0  0  0  0  0  0  0  0  0
    4.7339    0.0162    0.8056 H   0  0  0  0  0  0  0  0  0  0  0  0
    3.4931    0.4896    2.0214 H   0  0  0  0  0  0  0  0  0  0  0  0
    1.7546   -3.1946   -0.6838 H   0  0  0  0  0  0  0  0  0  0  0  0
    0.6180   -2.7017    0.5850 H   0  0  0  0  0  0  0  0  0  0  0  0
    2.5110   -1.8320   -3.8587 H   0  0  0  0  0  0  0  0  0  0  0  0
   -2.3115    1.5567   -2.4439 H   0  0  0  0  0  0  0  0  0  0  0  0
   -5.5648    1.4103    0.5937 H   0  0  0  0  0  0  0  0  0  0  0  0
   -4.5471    2.5743    1.5507 H   0  0  0  0  0  0  0  0  0  0  0  0
   -4.3484    0.7043    2.9285 H   0  0  0  0  0  0  0  0  0  0  0  0
   -4.6040   -0.4476    1.5915 H   0  0  0  0  0  0  0  0  0  0  0  0
   -0.6597   -1.1803    1.2493 H   0  0  0  0  0  0  0  0  0  0  0  0
  2  3  1  0
  3  4  1  0
  4  5  1  0
  5  6  2  0
  5  7  1  0
  7  8  1  0
  8  9  1  0
  9 10  2  3
  9 11  1  0
 11 12  1  0
 12 13  2  0
 13 14  1  0
 14 15  1  0
 15 16  1  0
 16 17  1  0
 17 18  1  0
 18 19  1  0
 19 20  1  0
 20 21  2  0
 21  8  1  0
 21 12  1  0
 19 14  2  0
  1 22  1  0
  2 23  1  0
  2 24  1  0
  2 25  1  0
  3 26  1  0
  3 27  1  0
  7 28  1  0
  7 29  1  0
 10 30  1  0
 13 31  1  0
 16 32  1  0
 16 33  1  0
 17 34  1  0
 17 35  1  0
 20 36  1  0
M  END
>  <Unnamed: 0>  (267) 
1667

>  <ID>  (267) 
TRAIN_1667

>  <Canonical_Smiles>  (267) 
Br.CCOC(=O)CN1C(=N)Sc2cc3OCCOc3cc12

>  <Inhibition>  (267) 
11.312822

>  <TDC_conf_true_inhibitor>  (267) 
0

>  <TDC_conf_non_inhibitor>  (267) 
1

>  <split>  (267) 
1

$$$$
267
     RDKit          3D

 40 43  0  0  0  0  0  0  0  0999 V2000
   -6.8352    0.2810    2.6757 Cl  0  0  0  0  0  0  0  0  0  0  0  0
   -6.0651   -0.4164    1.2973 C   0  0  0  0  0  0  0  0  0  0  0  0
   -6.3946   -1.8216    0.9260 C   0  0  0  0  0  0  0  0  0  0  0  0
   -5.7847   -2.3383   -0.1483 C   0  0  0  0  0  0  0  0  0  0  0  0
   -4.8723   -1.5362   -0.8633 C   0  0  0  0  0  0  0  0  0  0  0  0
   -4.1344   -1.7594   -1.9273 N   0  0  0  0  0  0  0  0  0  0  0  0
   -3.4212   -0.6116   -2.1902 N   0  0  0  0  0  0  0  0  0  0  0  0
   -3.7371    0.2870   -1.2765 C   0  0  0  0  0  0  0  0  0  0  0  0
   -3.1903    1.6641   -1.1555 C   0  0  0  0  0  0  0  0  0  0  0  0
   -1.9523    1.7241   -0.2593 C   0  0  0  0  0  0  0  0  0  0  0  0
   -0.7587    0.9628   -0.8413 C   0  0  0  0  0  0  0  0  0  0  0  0
    0.4979    1.1197    0.0018 C   0  0  0  0  0  0  0  0  0  0  0  0
    0.5226    1.8154    1.0101 O   0  0  0  0  0  0  0  0  0  0  0  0
    1.5500    0.3907   -0.5295 N   0  0  0  0  0  0  0  0  0  0  0  0
    2.8692    0.2906   -0.0381 C   0  0  0  0  0  0  0  0  0  0  0  0
    3.3270    0.9540    1.1006 C   0  0  0  0  0  0  0  0  0  0  0  0
    4.6500    0.8209    1.5460 C   0  0  0  0  0  0  0  0  0  0  0  0
    5.5044   -0.0031    0.8090 C   0  0  0  0  0  0  0  0  0  0  0  0
    6.8302   -0.3157    1.0062 N   0  0  0  0  0  0  0  0  0  0  0  0
    7.2644   -1.1701    0.0271 C   0  0  0  0  0  0  0  0  0  0  0  0
    6.2056   -1.4152   -0.8174 C   0  0  0  0  0  0  0  0  0  0  0  0
    5.0867   -0.6825   -0.3331 C   0  0  0  0  0  0  0  0  0  0  0  0
    3.7514   -0.5319   -0.7603 C   0  0  0  0  0  0  0  0  0  0  0  0
   -4.6601   -0.2492   -0.4098 N   0  0  0  0  0  0  0  0  0  0  0  0
   -5.2349    0.3566    0.6693 N   0  0  0  0  0  0  0  0  0  0  0  0
   -7.1058   -2.3719    1.5272 H   0  0  0  0  0  0  0  0  0  0  0  0
   -5.9702   -3.3526   -0.4831 H   0  0  0  0  0  0  0  0  0  0  0  0
   -3.9577    2.3375   -0.7554 H   0  0  0  0  0  0  0  0  0  0  0  0
   -2.9419    2.0412   -2.1549 H   0  0  0  0  0  0  0  0  0  0  0  0
   -1.6765    2.7776   -0.1236 H   0  0  0  0  0  0  0  0  0  0  0  0
   -2.1870    1.3330    0.7390 H   0  0  0  0  0  0  0  0  0  0  0  0
   -0.9859   -0.1074   -0.9051 H   0  0  0  0  0  0  0  0  0  0  0  0
   -0.5392    1.3314   -1.8504 H   0  0  0  0  0  0  0  0  0  0  0  0
    1.3505   -0.1440   -1.3663 H   0  0  0  0  0  0  0  0  0  0  0  0
    2.6721    1.5976    1.6805 H   0  0  0  0  0  0  0  0  0  0  0  0
    4.9874    1.3453    2.4342 H   0  0  0  0  0  0  0  0  0  0  0  0
    7.3950    0.0381    1.7659 H   0  0  0  0  0  0  0  0  0  0  0  0
    8.2851   -1.5279    0.0163 H   0  0  0  0  0  0  0  0  0  0  0  0
    6.2310   -2.0532   -1.6909 H   0  0  0  0  0  0  0  0  0  0  0  0
    3.4244   -1.0605   -1.6498 H   0  0  0  0  0  0  0  0  0  0  0  0
  1  2  1  0
  2  3  1  0
  3  4  2  0
  4  5  1  0
  5  6  2  0
  6  7  1  0
  7  8  2  0
  8  9  1  0
  9 10  1  0
 10 11  1  0
 11 12  1  0
 12 13  2  0
 12 14  1  0
 14 15  1  0
 15 16  2  0
 16 17  1  0
 17 18  2  0
 18 19  1  0
 19 20  1  0
 20 21  2  0
 21 22  1  0
 22 23  2  0
  8 24  1  0
 24 25  1  0
 25  2  2  0
 24  5  1  0
 23 15  1  0
 22 18  1  0
  3 26  1  0
  4 27  1  0
  9 28  1  0
  9 29  1  0
 10 30  1  0
 10 31  1  0
 11 32  1  0
 11 33  1  0
 14 34  1  0
 16 35  1  0
 17 36  1  0
 19 37  1  0
 20 38  1  0
 21 39  1  0
 23 40  1  0
M  END
>  <Unnamed: 0>  (268) 
1672

>  <ID>  (268) 
TRAIN_1672

>  <Canonical_Smiles>  (268) 
Clc1ccc2nnc(CCCC(=O)Nc3ccc4[nH]ccc4c3)n2n1

>  <Inhibition>  (268) 
48.152459

>  <TDC_conf_true_inhibitor>  (268) 
1

>  <TDC_conf_non_inhibitor>  (268) 
0

>  <split>  (268) 
1

$$$$
268
     RDKit          3D

 32 33  0  0  0  0  0  0  0  0999 V2000
   -1.7955   -1.3994   -0.8347 C   0  0  0  0  0  0  0  0  0  0  0  0
   -2.2077   -0.2371    0.0357 C   0  0  0  0  0  0  0  0  0  0  0  0
   -3.2806    0.6252   -0.5832 C   0  0  0  0  0  0  0  0  0  0  0  0
   -2.2107   -0.4744    1.5382 C   0  0  0  0  0  0  0  0  0  0  0  0
   -1.1825    0.4575    0.9232 C   0  0  0  0  0  0  0  0  0  0  0  0
    0.2488    0.0618    0.9325 C   0  0  0  0  0  0  0  0  0  0  0  0
    0.7172   -0.5237    1.8974 O   0  0  0  0  0  0  0  0  0  0  0  0
    0.9132    0.4323   -0.2097 N   0  0  0  0  0  0  0  0  0  0  0  0
    2.2364    0.2216   -0.5284 C   0  0  0  0  0  0  0  0  0  0  0  0
    3.1637   -0.3816    0.2259 C   0  0  0  0  0  0  0  0  0  0  0  0
    4.4551   -0.5312   -0.2071 N   0  0  0  0  0  0  0  0  0  0  0  0
    4.9108   -0.0905   -1.4183 C   0  0  0  0  0  0  0  0  0  0  0  0
    6.0742   -0.2430   -1.7724 O   0  0  0  0  0  0  0  0  0  0  0  0
    3.9845    0.5293   -2.2062 N   0  0  0  0  0  0  0  0  0  0  0  0
    2.6752    0.7261   -1.8712 C   0  0  0  0  0  0  0  0  0  0  0  0
    1.8742    1.2861   -2.6177 O   0  0  0  0  0  0  0  0  0  0  0  0
   -3.2926    0.0376    2.3958 C   0  0  0  0  0  0  0  0  0  0  0  0
   -4.3857   -0.4915    2.4968 O   0  0  0  0  0  0  0  0  0  0  0  0
   -2.9700    1.1488    3.0831 O   0  0  0  0  0  0  0  0  0  0  0  0
   -1.0604   -2.0478   -0.3466 H   0  0  0  0  0  0  0  0  0  0  0  0
   -2.6672   -2.0157   -1.0794 H   0  0  0  0  0  0  0  0  0  0  0  0
   -1.3584   -1.0373   -1.7711 H   0  0  0  0  0  0  0  0  0  0  0  0
   -2.9556    0.9862   -1.5647 H   0  0  0  0  0  0  0  0  0  0  0  0
   -4.2018    0.0486   -0.7168 H   0  0  0  0  0  0  0  0  0  0  0  0
   -3.5158    1.5025    0.0285 H   0  0  0  0  0  0  0  0  0  0  0  0
   -1.8482   -1.4402    1.8808 H   0  0  0  0  0  0  0  0  0  0  0  0
   -1.3203    1.5180    1.1171 H   0  0  0  0  0  0  0  0  0  0  0  0
    0.3787    0.9113   -0.9324 H   0  0  0  0  0  0  0  0  0  0  0  0
    2.9581   -0.7841    1.2122 H   0  0  0  0  0  0  0  0  0  0  0  0
    5.1391   -0.9922    0.3835 H   0  0  0  0  0  0  0  0  0  0  0  0
    4.2956    0.8618   -3.1051 H   0  0  0  0  0  0  0  0  0  0  0  0
   -3.7715    1.3351    3.6145 H   0  0  0  0  0  0  0  0  0  0  0  0
  1  2  1  0
  2  3  1  0
  2  4  1  0
  4  5  1  0
  5  6  1  0
  6  7  2  0
  6  8  1  0
  8  9  1  0
  9 10  2  0
 10 11  1  0
 11 12  1  0
 12 13  2  0
 12 14  1  0
 14 15  1  0
 15 16  2  0
  4 17  1  0
 17 18  2  0
 17 19  1  0
  5  2  1  0
 15  9  1  0
  1 20  1  0
  1 21  1  0
  1 22  1  0
  3 23  1  0
  3 24  1  0
  3 25  1  0
  4 26  1  0
  5 27  1  0
  8 28  1  0
 10 29  1  0
 11 30  1  0
 14 31  1  0
 19 32  1  0
M  END
>  <Unnamed: 0>  (269) 
1675

>  <ID>  (269) 
TRAIN_1675

>  <Canonical_Smiles>  (269) 
CC1(C)C(C1C(=O)NC2=CNC(=O)NC2=O)C(=O)O

>  <Inhibition>  (269) 
3.133958

>  <TDC_conf_true_inhibitor>  (269) 
0

>  <TDC_conf_non_inhibitor>  (269) 
1

>  <split>  (269) 
1

$$$$
269
     RDKit          3D

 43 46  0  0  0  0  0  0  0  0999 V2000
    3.6322   -1.4353   -0.1768 O   0  0  0  0  0  0  0  0  0  0  0  0
    2.9165   -0.4833    0.1392 C   0  0  0  0  0  0  0  0  0  0  0  0
    3.4603    0.8345    0.7062 C   0  0  0  0  0  0  0  0  0  0  0  0
    4.9041    0.7896    0.8670 N   0  0  0  0  0  0  0  0  0  0  0  0
    5.6628    1.3208   -0.1580 N   0  0  0  0  0  0  0  0  0  0  0  0
    6.9456    1.2131   -0.0447 C   0  0  0  0  0  0  0  0  0  0  0  0
    7.6591    0.5875    1.0754 C   0  0  0  0  0  0  0  0  0  0  0  0
    6.9071    0.0973    2.0610 C   0  0  0  0  0  0  0  0  0  0  0  0
    5.4320    0.1852    2.0006 C   0  0  0  0  0  0  0  0  0  0  0  0
    4.7664   -0.2576    2.9335 O   0  0  0  0  0  0  0  0  0  0  0  0
    1.5473   -0.5537   -0.0153 N   0  0  0  0  0  0  0  0  0  0  0  0
    0.9126   -1.7630   -0.5358 C   0  0  0  0  0  0  0  0  0  0  0  0
   -0.5265   -1.4133   -0.5399 C   0  0  0  0  0  0  0  0  0  0  0  0
   -1.6315   -2.1037   -0.9186 C   0  0  0  0  0  0  0  0  0  0  0  0
   -2.8652   -1.5657   -0.8262 N   0  0  0  0  0  0  0  0  0  0  0  0
   -2.9947   -0.3056   -0.3442 C   0  0  0  0  0  0  0  0  0  0  0  0
   -1.9430    0.4369    0.0509 N   0  0  0  0  0  0  0  0  0  0  0  0
   -0.7420   -0.1442   -0.0595 C   0  0  0  0  0  0  0  0  0  0  0  0
    0.5684    0.4846    0.3238 C   0  0  0  0  0  0  0  0  0  0  0  0
   -4.2629    0.2242   -0.2270 N   0  0  0  0  0  0  0  0  0  0  0  0
   -5.3590   -0.5069   -0.8661 C   0  0  0  0  0  0  0  0  0  0  0  0
   -6.6816    0.2356   -0.6220 C   0  0  0  0  0  0  0  0  0  0  0  0
   -6.6970    1.5754   -1.1404 O   0  0  0  0  0  0  0  0  0  0  0  0
   -5.3964    2.1825   -1.1931 C   0  0  0  0  0  0  0  0  0  0  0  0
   -4.4255    1.6758   -0.1134 C   0  0  0  0  0  0  0  0  0  0  0  0
    2.9983    1.0198    1.6815 H   0  0  0  0  0  0  0  0  0  0  0  0
    3.2058    1.6541    0.0258 H   0  0  0  0  0  0  0  0  0  0  0  0
    7.5859    1.6197   -0.8446 H   0  0  0  0  0  0  0  0  0  0  0  0
    8.7382    0.5453    1.0641 H   0  0  0  0  0  0  0  0  0  0  0  0
    7.3271   -0.3859    2.9331 H   0  0  0  0  0  0  0  0  0  0  0  0
    1.1331   -2.6001    0.1337 H   0  0  0  0  0  0  0  0  0  0  0  0
    1.2941   -1.9645   -1.5414 H   0  0  0  0  0  0  0  0  0  0  0  0
   -1.5850   -3.1138   -1.3094 H   0  0  0  0  0  0  0  0  0  0  0  0
    0.6155    0.6940    1.3960 H   0  0  0  0  0  0  0  0  0  0  0  0
    0.7728    1.3851   -0.2617 H   0  0  0  0  0  0  0  0  0  0  0  0
   -5.1807   -0.5768   -1.9468 H   0  0  0  0  0  0  0  0  0  0  0  0
   -5.4429   -1.5195   -0.4546 H   0  0  0  0  0  0  0  0  0  0  0  0
   -6.8929    0.2954    0.4523 H   0  0  0  0  0  0  0  0  0  0  0  0
   -7.5108   -0.3060   -1.0883 H   0  0  0  0  0  0  0  0  0  0  0  0
   -4.9845    1.9963   -2.1921 H   0  0  0  0  0  0  0  0  0  0  0  0
   -5.5367    3.2637   -1.0952 H   0  0  0  0  0  0  0  0  0  0  0  0
   -4.8398    1.8921    0.8784 H   0  0  0  0  0  0  0  0  0  0  0  0
   -3.4866    2.2320   -0.2073 H   0  0  0  0  0  0  0  0  0  0  0  0
  1  2  2  0
  2  3  1  0
  3  4  1  0
  4  5  1  0
  5  6  2  0
  6  7  1  0
  7  8  2  0
  8  9  1  0
  9 10  2  0
  2 11  1  0
 11 12  1  0
 12 13  1  0
 13 14  2  0
 14 15  1  0
 15 16  2  0
 16 17  1  0
 17 18  2  0
 18 19  1  0
 16 20  1  0
 20 21  1  0
 21 22  1  0
 22 23  1  0
 23 24  1  0
 24 25  1  0
  9  4  1  0
 19 11  1  0
 18 13  1  0
 25 20  1  0
  3 26  1  0
  3 27  1  0
  6 28  1  0
  7 29  1  0
  8 30  1  0
 12 31  1  0
 12 32  1  0
 14 33  1  0
 19 34  1  0
 19 35  1  0
 21 36  1  0
 21 37  1  0
 22 38  1  0
 22 39  1  0
 24 40  1  0
 24 41  1  0
 25 42  1  0
 25 43  1  0
M  END
>  <Unnamed: 0>  (270) 
1677

>  <ID>  (270) 
TRAIN_1677

>  <Canonical_Smiles>  (270) 
O=C(CN1N=CC=CC1=O)N2Cc3cnc(nc3C2)N4CCOCC4

>  <Inhibition>  (270) 
0.5

>  <TDC_conf_true_inhibitor>  (270) 
0

>  <TDC_conf_non_inhibitor>  (270) 
1

>  <split>  (270) 
1

$$$$
