0
     RDKit          3D

 33 33  0  0  0  0  0  0  0  0999 V2000
    0.6828    0.0000    0.0000 Cl  0  0  0  0  0  0  0  0  0  0  0  0
   -0.5138    1.1221   -1.3204 O   0  0  0  0  0  0  0  0  0  0  0  0
   -0.7957   -0.0242   -0.5783 C   0  0  0  0  0  0  0  0  0  0  0  0
    0.2811   -1.0673   -0.7296 C   0  0  0  0  0  0  0  0  0  0  0  0
    1.6033   -0.6438   -0.3001 C   0  0  0  0  0  0  0  0  0  0  0  0
    2.4367   -0.0404   -1.2508 C   0  0  0  0  0  0  0  0  0  0  0  0
    3.7072    0.3921   -0.9307 C   0  0  0  0  0  0  0  0  0  0  0  0
    4.2007    0.2440    0.3409 C   0  0  0  0  0  0  0  0  0  0  0  0
    3.3808   -0.3507    1.2797 C   0  0  0  0  0  0  0  0  0  0  0  0
    4.0261   -0.5777    3.0637 Br  0  0  0  0  0  0  0  0  0  0  0  0
    2.1196   -0.7802    0.9629 C   0  0  0  0  0  0  0  0  0  0  0  0
   -2.0467   -0.6367   -1.2211 C   0  0  0  0  0  0  0  0  0  0  0  0
   -3.2122    0.3160   -1.1809 C   0  0  0  0  0  0  0  0  0  0  0  0
   -3.2660    1.1112    0.0031 N   0  0  0  0  0  0  0  0  0  0  0  0
   -2.5786    0.5423    1.0965 C   0  0  0  0  0  0  0  0  0  0  0  0
   -1.1213    0.2469    0.8478 C   0  0  0  0  0  0  0  0  0  0  0  0
   -0.6828    0.0000    0.0000 H   0  0  0  0  0  0  0  0  0  0  0  0
    0.0449    1.7563   -0.7950 H   0  0  0  0  0  0  0  0  0  0  0  0
   -0.0378   -1.9581   -0.1474 H   0  0  0  0  0  0  0  0  0  0  0  0
    0.3497   -1.4046   -1.7857 H   0  0  0  0  0  0  0  0  0  0  0  0
    2.1130    0.1065   -2.2654 H   0  0  0  0  0  0  0  0  0  0  0  0
    4.3451    0.8571   -1.6698 H   0  0  0  0  0  0  0  0  0  0  0  0
    5.1944    0.5697    0.6367 H   0  0  0  0  0  0  0  0  0  0  0  0
    1.4802   -1.2449    1.6984 H   0  0  0  0  0  0  0  0  0  0  0  0
   -1.7541   -0.8931   -2.2583 H   0  0  0  0  0  0  0  0  0  0  0  0
   -2.2362   -1.5861   -0.6854 H   0  0  0  0  0  0  0  0  0  0  0  0
   -3.1947    0.9004   -2.1221 H   0  0  0  0  0  0  0  0  0  0  0  0
   -4.1323   -0.3067   -1.2104 H   0  0  0  0  0  0  0  0  0  0  0  0
   -3.2041    2.1207   -0.1239 H   0  0  0  0  0  0  0  0  0  0  0  0
   -3.0865   -0.4324    1.3583 H   0  0  0  0  0  0  0  0  0  0  0  0
   -2.7274    1.1911    1.9944 H   0  0  0  0  0  0  0  0  0  0  0  0
   -0.8286   -0.6376    1.4532 H   0  0  0  0  0  0  0  0  0  0  0  0
   -0.5469    1.1080    1.2771 H   0  0  0  0  0  0  0  0  0  0  0  0
  2  3  1  0
  3  4  1  0
  4  5  1  0
  5  6  2  0
  6  7  1  0
  7  8  2  0
  8  9  1  0
  9 10  1  0
  9 11  2  0
  3 12  1  0
 12 13  1  0
 13 14  1  0
 14 15  1  0
 15 16  1  0
 16  3  1  0
 11  5  1  0
  1 17  1  0
  2 18  1  0
  4 19  1  0
  4 20  1  0
  6 21  1  0
  7 22  1  0
  8 23  1  0
 11 24  1  0
 12 25  1  0
 12 26  1  0
 13 27  1  0
 13 28  1  0
 14 29  1  0
 15 30  1  0
 15 31  1  0
 16 32  1  0
 16 33  1  0
M  END
>  <Unnamed: 0>  (1) 
0

>  <ID>  (1) 
TRAIN_0000

>  <Canonical_Smiles>  (1) 
Cl.OC1(Cc2cccc(Br)c2)CCNCC1

>  <Inhibition>  (1) 
12.5

>  <TDC_conf_true_inhibitor>  (1) 
0

>  <TDC_conf_non_inhibitor>  (1) 
1

>  <split>  (1) 
1

$$$$
1
     RDKit          3D

 55 57  0  0  0  0  0  0  0  0999 V2000
   -5.4791    3.1239    0.0895 C   0  0  0  0  0  0  0  0  0  0  0  0
   -4.3373    2.1359    0.2991 C   0  0  0  0  0  0  0  0  0  0  0  0
   -4.4762    0.7603   -0.3269 C   0  0  0  0  0  0  0  0  0  0  0  0
   -5.6286    0.3889   -1.0439 C   0  0  0  0  0  0  0  0  0  0  0  0
   -5.7396   -0.8696   -1.6391 C   0  0  0  0  0  0  0  0  0  0  0  0
   -4.6977   -1.7821   -1.5335 C   0  0  0  0  0  0  0  0  0  0  0  0
   -3.5489   -1.4320   -0.8204 C   0  0  0  0  0  0  0  0  0  0  0  0
   -2.4323   -2.3909   -0.6992 C   0  0  0  0  0  0  0  0  0  0  0  0
   -2.4954   -3.4799   -1.2641 O   0  0  0  0  0  0  0  0  0  0  0  0
   -1.2484   -2.0029    0.1177 C   0  0  0  0  0  0  0  0  0  0  0  0
   -1.1898   -0.7551    0.6538 C   0  0  0  0  0  0  0  0  0  0  0  0
   -0.1151   -0.3369    1.4369 N   0  0  0  0  0  0  0  0  0  0  0  0
    0.3037    1.0418    1.6793 C   0  0  0  0  0  0  0  0  0  0  0  0
    0.9190    1.6986    0.4373 C   0  0  0  0  0  0  0  0  0  0  0  0
    2.3970    1.4250    0.2821 C   0  0  0  0  0  0  0  0  0  0  0  0
    3.3369    2.3371    0.7729 C   0  0  0  0  0  0  0  0  0  0  0  0
    4.7057    2.1083    0.6084 C   0  0  0  0  0  0  0  0  0  0  0  0
    5.1582    0.9589   -0.0446 C   0  0  0  0  0  0  0  0  0  0  0  0
    6.4803    0.6548   -0.2566 O   0  0  0  0  0  0  0  0  0  0  0  0
    7.4448    1.6241    0.1223 C   0  0  0  0  0  0  0  0  0  0  0  0
    4.2217    0.0210   -0.5174 C   0  0  0  0  0  0  0  0  0  0  0  0
    4.7359   -1.0775   -1.1616 O   0  0  0  0  0  0  0  0  0  0  0  0
    3.8977   -2.2257   -1.2296 C   0  0  0  0  0  0  0  0  0  0  0  0
    2.8505    0.2634   -0.3569 C   0  0  0  0  0  0  0  0  0  0  0  0
   -2.2257    0.1374    0.4521 N   0  0  0  0  0  0  0  0  0  0  0  0
   -3.4301   -0.1835   -0.1957 C   0  0  0  0  0  0  0  0  0  0  0  0
   -0.1567   -2.9898    0.3754 C   0  0  0  0  0  0  0  0  0  0  0  0
    1.0183   -2.6240    0.4700 O   0  0  0  0  0  0  0  0  0  0  0  0
   -0.5184   -4.4415    0.5491 C   0  0  0  0  0  0  0  0  0  0  0  0
   -6.4137    2.7499    0.5190 H   0  0  0  0  0  0  0  0  0  0  0  0
   -5.2457    4.0745    0.5796 H   0  0  0  0  0  0  0  0  0  0  0  0
   -5.6411    3.3276   -0.9739 H   0  0  0  0  0  0  0  0  0  0  0  0
   -4.2069    2.0058    1.3805 H   0  0  0  0  0  0  0  0  0  0  0  0
   -3.4239    2.5993   -0.0941 H   0  0  0  0  0  0  0  0  0  0  0  0
   -6.4633    1.0756   -1.1626 H   0  0  0  0  0  0  0  0  0  0  0  0
   -6.6380   -1.1319   -2.1924 H   0  0  0  0  0  0  0  0  0  0  0  0
   -4.7793   -2.7577   -2.0068 H   0  0  0  0  0  0  0  0  0  0  0  0
    0.6921   -0.9724    1.3576 H   0  0  0  0  0  0  0  0  0  0  0  0
    1.0146    1.0473    2.5138 H   0  0  0  0  0  0  0  0  0  0  0  0
   -0.5566    1.6317    2.0137 H   0  0  0  0  0  0  0  0  0  0  0  0
    0.3954    1.4019   -0.4791 H   0  0  0  0  0  0  0  0  0  0  0  0
    0.7807    2.7847    0.5154 H   0  0  0  0  0  0  0  0  0  0  0  0
    3.0135    3.2436    1.2785 H   0  0  0  0  0  0  0  0  0  0  0  0
    5.3934    2.8492    0.9999 H   0  0  0  0  0  0  0  0  0  0  0  0
    8.4288    1.2435   -0.1655 H   0  0  0  0  0  0  0  0  0  0  0  0
    7.4501    1.7726    1.2067 H   0  0  0  0  0  0  0  0  0  0  0  0
    7.2881    2.5701   -0.4062 H   0  0  0  0  0  0  0  0  0  0  0  0
    4.4965   -3.0494   -1.6282 H   0  0  0  0  0  0  0  0  0  0  0  0
    3.0627   -2.0655   -1.9195 H   0  0  0  0  0  0  0  0  0  0  0  0
    3.5489   -2.5193   -0.2347 H   0  0  0  0  0  0  0  0  0  0  0  0
    2.1152   -0.4352   -0.7433 H   0  0  0  0  0  0  0  0  0  0  0  0
   -2.2713    0.8723    1.1432 H   0  0  0  0  0  0  0  0  0  0  0  0
   -1.5163   -4.5482    0.9796 H   0  0  0  0  0  0  0  0  0  0  0  0
    0.1869   -4.9030    1.2454 H   0  0  0  0  0  0  0  0  0  0  0  0
   -0.4609   -4.9551   -0.4117 H   0  0  0  0  0  0  0  0  0  0  0  0
  1  2  1  0
  2  3  1  0
  3  4  2  0
  4  5  1  0
  5  6  2  0
  6  7  1  0
  7  8  1  0
  8  9  2  0
  8 10  1  0
 10 11  2  0
 11 12  1  0
 12 13  1  0
 13 14  1  0
 14 15  1  0
 15 16  2  0
 16 17  1  0
 17 18  2  0
 18 19  1  0
 19 20  1  0
 18 21  1  0
 21 22  1  0
 22 23  1  0
 21 24  2  0
 11 25  1  0
 25 26  1  0
 10 27  1  0
 27 28  2  0
 27 29  1  0
 26  3  1  0
 26  7  2  0
 24 15  1  0
  1 30  1  0
  1 31  1  0
  1 32  1  0
  2 33  1  0
  2 34  1  0
  4 35  1  0
  5 36  1  0
  6 37  1  0
 12 38  1  0
 13 39  1  0
 13 40  1  0
 14 41  1  0
 14 42  1  0
 16 43  1  0
 17 44  1  0
 20 45  1  0
 20 46  1  0
 20 47  1  0
 23 48  1  0
 23 49  1  0
 23 50  1  0
 24 51  1  0
 25 52  1  0
 29 53  1  0
 29 54  1  0
 29 55  1  0
M  END
>  <Unnamed: 0>  (2) 
13

>  <ID>  (2) 
TRAIN_0013

>  <Canonical_Smiles>  (2) 
CCc1cccc2C(=O)C(=C(NCCc3ccc(OC)c(OC)c3)Nc12)C(=O)C

>  <Inhibition>  (2) 
85.4

>  <TDC_conf_true_inhibitor>  (2) 
1

>  <TDC_conf_non_inhibitor>  (2) 
0

>  <split>  (2) 
1

$$$$
2
     RDKit          3D

 47 49  0  0  0  0  0  0  0  0999 V2000
   -3.3461   -3.7869   -0.5986 C   0  0  0  0  0  0  0  0  0  0  0  0
   -2.3783   -2.6391   -0.6353 C   0  0  0  0  0  0  0  0  0  0  0  0
   -1.1711   -2.8985   -1.1980 N   0  0  0  0  0  0  0  0  0  0  0  0
   -0.2641   -1.8908   -1.2839 C   0  0  0  0  0  0  0  0  0  0  0  0
    1.0450   -2.2436   -1.9310 C   0  0  0  0  0  0  0  0  0  0  0  0
   -0.5306   -0.6083   -0.7949 C   0  0  0  0  0  0  0  0  0  0  0  0
    0.5040    0.4360   -0.9363 C   0  0  0  0  0  0  0  0  0  0  0  0
    0.8182    0.8310   -2.0508 O   0  0  0  0  0  0  0  0  0  0  0  0
    1.0646    0.8642    0.2431 N   0  0  0  0  0  0  0  0  0  0  0  0
    2.1826    1.7787    0.2648 C   0  0  0  0  0  0  0  0  0  0  0  0
    3.4733    1.0271    0.4604 C   0  0  0  0  0  0  0  0  0  0  0  0
    4.1166    0.4345   -0.6361 C   0  0  0  0  0  0  0  0  0  0  0  0
    5.2974   -0.2875   -0.4597 C   0  0  0  0  0  0  0  0  0  0  0  0
    5.8441   -0.4287    0.8142 C   0  0  0  0  0  0  0  0  0  0  0  0
    5.2097    0.1492    1.9128 C   0  0  0  0  0  0  0  0  0  0  0  0
    4.0276    0.8712    1.7386 C   0  0  0  0  0  0  0  0  0  0  0  0
   -1.7763   -0.3237   -0.1996 C   0  0  0  0  0  0  0  0  0  0  0  0
   -2.1086    1.0284    0.2847 C   0  0  0  0  0  0  0  0  0  0  0  0
   -2.1354    1.3171    1.6596 C   0  0  0  0  0  0  0  0  0  0  0  0
   -2.4365    2.6039    2.1145 C   0  0  0  0  0  0  0  0  0  0  0  0
   -2.7118    3.6152    1.1976 C   0  0  0  0  0  0  0  0  0  0  0  0
   -3.0785    5.1993    1.7583 Cl  0  0  0  0  0  0  0  0  0  0  0  0
   -2.6904    3.3506   -0.1689 C   0  0  0  0  0  0  0  0  0  0  0  0
   -2.3907    2.0630   -0.6226 C   0  0  0  0  0  0  0  0  0  0  0  0
   -2.7034   -1.3801   -0.1276 C   0  0  0  0  0  0  0  0  0  0  0  0
   -4.0432   -1.1710    0.4304 C   0  0  0  0  0  0  0  0  0  0  0  0
   -5.0622   -0.9708   -0.1977 O   0  0  0  0  0  0  0  0  0  0  0  0
   -4.0150   -1.2821    1.7692 O   0  0  0  0  0  0  0  0  0  0  0  0
   -3.6419   -4.0071    0.4317 H   0  0  0  0  0  0  0  0  0  0  0  0
   -4.2349   -3.5575   -1.1942 H   0  0  0  0  0  0  0  0  0  0  0  0
   -2.8895   -4.6913   -1.0145 H   0  0  0  0  0  0  0  0  0  0  0  0
    1.1654   -1.7021   -2.8739 H   0  0  0  0  0  0  0  0  0  0  0  0
    1.8807   -2.0120   -1.2634 H   0  0  0  0  0  0  0  0  0  0  0  0
    1.0882   -3.3150   -2.1543 H   0  0  0  0  0  0  0  0  0  0  0  0
    0.8278    0.3973    1.1073 H   0  0  0  0  0  0  0  0  0  0  0  0
    2.2206    2.3690   -0.6576 H   0  0  0  0  0  0  0  0  0  0  0  0
    2.0166    2.4780    1.0917 H   0  0  0  0  0  0  0  0  0  0  0  0
    3.6928    0.5331   -1.6348 H   0  0  0  0  0  0  0  0  0  0  0  0
    5.7891   -0.7399   -1.3170 H   0  0  0  0  0  0  0  0  0  0  0  0
    6.7645   -0.9903    0.9508 H   0  0  0  0  0  0  0  0  0  0  0  0
    5.6368    0.0368    2.9059 H   0  0  0  0  0  0  0  0  0  0  0  0
    3.5443    1.3135    2.6066 H   0  0  0  0  0  0  0  0  0  0  0  0
   -1.9248    0.5375    2.3898 H   0  0  0  0  0  0  0  0  0  0  0  0
   -2.4552    2.8090    3.1815 H   0  0  0  0  0  0  0  0  0  0  0  0
   -2.9030    4.1379   -0.8876 H   0  0  0  0  0  0  0  0  0  0  0  0
   -2.3730    1.8746   -1.6957 H   0  0  0  0  0  0  0  0  0  0  0  0
   -4.9451   -1.1299    2.0429 H   0  0  0  0  0  0  0  0  0  0  0  0
  1  2  1  0
  2  3  2  0
  3  4  1  0
  4  5  1  0
  4  6  2  0
  6  7  1  0
  7  8  2  0
  7  9  1  0
  9 10  1  0
 10 11  1  0
 11 12  2  0
 12 13  1  0
 13 14  2  0
 14 15  1  0
 15 16  2  0
  6 17  1  0
 17 18  1  0
 18 19  2  0
 19 20  1  0
 20 21  2  0
 21 22  1  0
 21 23  1  0
 23 24  2  0
 17 25  2  0
 25 26  1  0
 26 27  2  0
 26 28  1  0
 25  2  1  0
 16 11  1  0
 24 18  1  0
  1 29  1  0
  1 30  1  0
  1 31  1  0
  5 32  1  0
  5 33  1  0
  5 34  1  0
  9 35  1  0
 10 36  1  0
 10 37  1  0
 12 38  1  0
 13 39  1  0
 14 40  1  0
 15 41  1  0
 16 42  1  0
 19 43  1  0
 20 44  1  0
 23 45  1  0
 24 46  1  0
 28 47  1  0
M  END
>  <Unnamed: 0>  (3) 
15

>  <ID>  (3) 
TRAIN_0015

>  <Canonical_Smiles>  (3) 
Cc1nc(C)c(C(=O)NCc2ccccc2)c(c3ccc(Cl)cc3)c1C(=O)O

>  <Inhibition>  (3) 
16.2

>  <TDC_conf_true_inhibitor>  (3) 
0

>  <TDC_conf_non_inhibitor>  (3) 
1

>  <split>  (3) 
1

$$$$
3
     RDKit          3D

 33 34  0  0  0  0  0  0  0  0999 V2000
   -5.6459    2.3765    0.4569 O   0  0  0  0  0  0  0  0  0  0  0  0
   -5.4771    1.0901    0.0867 C   0  0  0  0  0  0  0  0  0  0  0  0
   -6.4437    0.3915   -0.1485 O   0  0  0  0  0  0  0  0  0  0  0  0
   -4.0376    0.7220    0.0247 C   0  0  0  0  0  0  0  0  0  0  0  0
   -3.0672    1.7160   -0.1630 C   0  0  0  0  0  0  0  0  0  0  0  0
   -1.7093    1.3842   -0.2505 C   0  0  0  0  0  0  0  0  0  0  0  0
   -1.2975    0.0552   -0.1526 C   0  0  0  0  0  0  0  0  0  0  0  0
    0.0484   -0.3575   -0.2400 N   0  0  0  0  0  0  0  0  0  0  0  0
    1.1599    0.4507   -0.3736 C   0  0  0  0  0  0  0  0  0  0  0  0
    1.2143    1.6702   -0.4451 O   0  0  0  0  0  0  0  0  0  0  0  0
    2.4289   -0.2965   -0.4755 C   0  0  0  0  0  0  0  0  0  0  0  0
    2.6680   -1.0465   -1.6358 C   0  0  0  0  0  0  0  0  0  0  0  0
    3.8915   -1.6973   -1.8003 C   0  0  0  0  0  0  0  0  0  0  0  0
    4.8766   -1.5931   -0.8172 C   0  0  0  0  0  0  0  0  0  0  0  0
    4.6403   -0.8428    0.3376 C   0  0  0  0  0  0  0  0  0  0  0  0
    3.4114   -0.1910    0.5131 C   0  0  0  0  0  0  0  0  0  0  0  0
    3.1351    0.5265    1.7705 C   0  0  0  0  0  0  0  0  0  0  0  0
    2.0920    0.5004    2.3936 O   0  0  0  0  0  0  0  0  0  0  0  0
    4.2071    1.2184    2.1929 O   0  0  0  0  0  0  0  0  0  0  0  0
   -2.2647   -0.9410    0.0385 C   0  0  0  0  0  0  0  0  0  0  0  0
   -3.6228   -0.6096    0.1279 C   0  0  0  0  0  0  0  0  0  0  0  0
   -4.5345   -1.6056    0.3407 O   0  0  0  0  0  0  0  0  0  0  0  0
   -6.6207    2.4757    0.4757 H   0  0  0  0  0  0  0  0  0  0  0  0
   -3.3548    2.7618   -0.2493 H   0  0  0  0  0  0  0  0  0  0  0  0
   -0.9995    2.1933   -0.3959 H   0  0  0  0  0  0  0  0  0  0  0  0
    0.2207   -1.3496   -0.1360 H   0  0  0  0  0  0  0  0  0  0  0  0
    1.9189   -1.0989   -2.4230 H   0  0  0  0  0  0  0  0  0  0  0  0
    4.0855   -2.2720   -2.7036 H   0  0  0  0  0  0  0  0  0  0  0  0
    5.8330   -2.0945   -0.9510 H   0  0  0  0  0  0  0  0  0  0  0  0
    5.4125   -0.7753    1.1012 H   0  0  0  0  0  0  0  0  0  0  0  0
    3.8857    1.6882    2.9914 H   0  0  0  0  0  0  0  0  0  0  0  0
   -1.9588   -1.9791    0.1261 H   0  0  0  0  0  0  0  0  0  0  0  0
   -4.0957   -2.4704    0.3540 H   0  0  0  0  0  0  0  0  0  0  0  0
  1  2  1  0
  2  3  2  0
  2  4  1  0
  4  5  2  0
  5  6  1  0
  6  7  2  0
  7  8  1  0
  8  9  1  0
  9 10  2  0
  9 11  1  0
 11 12  2  0
 12 13  1  0
 13 14  2  0
 14 15  1  0
 15 16  2  0
 16 17  1  0
 17 18  2  0
 17 19  1  0
  7 20  1  0
 20 21  2  0
 21 22  1  0
 21  4  1  0
 16 11  1  0
  1 23  1  0
  5 24  1  0
  6 25  1  0
  8 26  1  0
 12 27  1  0
 13 28  1  0
 14 29  1  0
 15 30  1  0
 19 31  1  0
 20 32  1  0
 22 33  1  0
M  END
>  <Unnamed: 0>  (4) 
21

>  <ID>  (4) 
TRAIN_0021

>  <Canonical_Smiles>  (4) 
OC(=O)c1ccc(NC(=O)c2ccccc2C(=O)O)cc1O

>  <Inhibition>  (4) 
6.4

>  <TDC_conf_true_inhibitor>  (4) 
0

>  <TDC_conf_non_inhibitor>  (4) 
1

>  <split>  (4) 
1

$$$$
4
     RDKit          3D

 50 51  0  0  0  0  0  0  0  0999 V2000
    9.3422    0.6067    0.5578 C   0  0  0  0  0  0  0  0  0  0  0  0
    8.8605   -0.3758   -0.4955 C   0  0  0  0  0  0  0  0  0  0  0  0
    8.0504    0.2806   -1.4689 O   0  0  0  0  0  0  0  0  0  0  0  0
    6.7049    0.3805   -1.2567 C   0  0  0  0  0  0  0  0  0  0  0  0
    6.0153   -0.0105   -0.1084 C   0  0  0  0  0  0  0  0  0  0  0  0
    4.6263    0.1553   -0.0270 C   0  0  0  0  0  0  0  0  0  0  0  0
    3.9190    0.7106   -1.1004 C   0  0  0  0  0  0  0  0  0  0  0  0
    4.6113    1.1257   -2.2408 C   0  0  0  0  0  0  0  0  0  0  0  0
    5.9956    0.9548   -2.3160 C   0  0  0  0  0  0  0  0  0  0  0  0
    2.4426    0.9051   -1.0500 C   0  0  0  0  0  0  0  0  0  0  0  0
    1.9710    1.9007   -1.5844 O   0  0  0  0  0  0  0  0  0  0  0  0
    1.7475   -0.1113   -0.4194 N   0  0  0  0  0  0  0  0  0  0  0  0
    0.3584   -0.1793   -0.1856 C   0  0  0  0  0  0  0  0  0  0  0  0
   -0.1375   -1.3525    0.3923 C   0  0  0  0  0  0  0  0  0  0  0  0
   -1.5040   -1.4944    0.6612 C   0  0  0  0  0  0  0  0  0  0  0  0
   -2.4002   -0.4645    0.3605 C   0  0  0  0  0  0  0  0  0  0  0  0
   -3.7547   -0.6812    0.6594 N   0  0  0  0  0  0  0  0  0  0  0  0
   -4.8149    0.1589    0.4685 C   0  0  0  0  0  0  0  0  0  0  0  0
   -4.8030    1.2831   -0.0034 O   0  0  0  0  0  0  0  0  0  0  0  0
   -5.9280   -0.4845    0.9072 O   0  0  0  0  0  0  0  0  0  0  0  0
   -7.2317    0.1505    0.8386 C   0  0  0  0  0  0  0  0  0  0  0  0
   -7.6379    0.4370   -0.6113 C   0  0  0  0  0  0  0  0  0  0  0  0
   -7.2863    1.4098    1.7106 C   0  0  0  0  0  0  0  0  0  0  0  0
   -8.2007   -0.8902    1.4213 C   0  0  0  0  0  0  0  0  0  0  0  0
   -1.9058    0.7063   -0.2117 C   0  0  0  0  0  0  0  0  0  0  0  0
   -0.5362    0.8478   -0.4819 C   0  0  0  0  0  0  0  0  0  0  0  0
    9.8671    1.4450    0.0877 H   0  0  0  0  0  0  0  0  0  0  0  0
    8.5064    1.0325    1.1208 H   0  0  0  0  0  0  0  0  0  0  0  0
   10.0216    0.1168    1.2611 H   0  0  0  0  0  0  0  0  0  0  0  0
    9.7348   -0.7627   -1.0314 H   0  0  0  0  0  0  0  0  0  0  0  0
    8.3668   -1.2504   -0.0581 H   0  0  0  0  0  0  0  0  0  0  0  0
    6.5271   -0.4296    0.7512 H   0  0  0  0  0  0  0  0  0  0  0  0
    4.1186   -0.1213    0.8933 H   0  0  0  0  0  0  0  0  0  0  0  0
    4.0770    1.5817   -3.0719 H   0  0  0  0  0  0  0  0  0  0  0  0
    6.5275    1.2772   -3.2086 H   0  0  0  0  0  0  0  0  0  0  0  0
    2.2767   -0.9318   -0.1567 H   0  0  0  0  0  0  0  0  0  0  0  0
    0.5272   -2.1757    0.6398 H   0  0  0  0  0  0  0  0  0  0  0  0
   -1.8531   -2.4216    1.1081 H   0  0  0  0  0  0  0  0  0  0  0  0
   -4.0175   -1.5649    1.0708 H   0  0  0  0  0  0  0  0  0  0  0  0
   -8.6835    0.7571   -0.6761 H   0  0  0  0  0  0  0  0  0  0  0  0
   -7.5069   -0.4544   -1.2350 H   0  0  0  0  0  0  0  0  0  0  0  0
   -7.0270    1.2261   -1.0597 H   0  0  0  0  0  0  0  0  0  0  0  0
   -6.9083    1.2018    2.7179 H   0  0  0  0  0  0  0  0  0  0  0  0
   -6.6690    2.2166    1.3044 H   0  0  0  0  0  0  0  0  0  0  0  0
   -8.3094    1.7920    1.7944 H   0  0  0  0  0  0  0  0  0  0  0  0
   -8.1638   -1.8224    0.8456 H   0  0  0  0  0  0  0  0  0  0  0  0
   -9.2339   -0.5271    1.4257 H   0  0  0  0  0  0  0  0  0  0  0  0
   -7.9210   -1.1506    2.4489 H   0  0  0  0  0  0  0  0  0  0  0  0
   -2.5561    1.5386   -0.4647 H   0  0  0  0  0  0  0  0  0  0  0  0
   -0.2055    1.7833   -0.9233 H   0  0  0  0  0  0  0  0  0  0  0  0
  1  2  1  0
  2  3  1  0
  3  4  1  0
  4  5  2  0
  5  6  1  0
  6  7  2  0
  7  8  1  0
  8  9  2  0
  7 10  1  0
 10 11  2  0
 10 12  1  0
 12 13  1  0
 13 14  2  0
 14 15  1  0
 15 16  2  0
 16 17  1  0
 17 18  1  0
 18 19  2  0
 18 20  1  0
 20 21  1  0
 21 22  1  0
 21 23  1  0
 21 24  1  0
 16 25  1  0
 25 26  2  0
  9  4  1  0
 26 13  1  0
  1 27  1  0
  1 28  1  0
  1 29  1  0
  2 30  1  0
  2 31  1  0
  5 32  1  0
  6 33  1  0
  8 34  1  0
  9 35  1  0
 12 36  1  0
 14 37  1  0
 15 38  1  0
 17 39  1  0
 22 40  1  0
 22 41  1  0
 22 42  1  0
 23 43  1  0
 23 44  1  0
 23 45  1  0
 24 46  1  0
 24 47  1  0
 24 48  1  0
 25 49  1  0
 26 50  1  0
M  END
>  <Unnamed: 0>  (5) 
230

>  <ID>  (5) 
TRAIN_0230

>  <Canonical_Smiles>  (5) 
CCOc1ccc(cc1)C(=O)Nc2ccc(NC(=O)OC(C)(C)C)cc2

>  <Inhibition>  (5) 
14.6

>  <TDC_conf_true_inhibitor>  (5) 
0

>  <TDC_conf_non_inhibitor>  (5) 
1

>  <split>  (5) 
1

$$$$
5
     RDKit          3D

 31 32  0  0  0  0  0  0  0  0999 V2000
   -2.7494   -2.3333    0.4818 N   0  0  0  0  0  0  0  0  0  0  0  0
   -3.1217   -0.9757    0.4926 C   0  0  0  0  0  0  0  0  0  0  0  0
   -4.4844   -0.6562    0.4254 C   0  0  0  0  0  0  0  0  0  0  0  0
   -4.9064    0.6708    0.3103 C   0  0  0  0  0  0  0  0  0  0  0  0
   -3.9641    1.6914    0.2288 C   0  0  0  0  0  0  0  0  0  0  0  0
   -4.4840    3.3261    0.1009 Cl  0  0  0  0  0  0  0  0  0  0  0  0
   -2.6031    1.3993    0.2378 C   0  0  0  0  0  0  0  0  0  0  0  0
   -2.1803    0.0640    0.3353 C   0  0  0  0  0  0  0  0  0  0  0  0
   -0.7207   -0.2434    0.3337 C   0  0  0  0  0  0  0  0  0  0  0  0
   -0.2999   -1.1008    1.1031 O   0  0  0  0  0  0  0  0  0  0  0  0
    0.0240    0.4750   -0.5818 N   0  0  0  0  0  0  0  0  0  0  0  0
    1.4199    0.4189   -0.7878 C   0  0  0  0  0  0  0  0  0  0  0  0
    2.3023   -0.3404   -0.0171 C   0  0  0  0  0  0  0  0  0  0  0  0
    3.6851   -0.3373   -0.2913 C   0  0  0  0  0  0  0  0  0  0  0  0
    4.1752    0.4488   -1.3472 C   0  0  0  0  0  0  0  0  0  0  0  0
    3.3012    1.2124   -2.1190 C   0  0  0  0  0  0  0  0  0  0  0  0
    1.9401    1.1911   -1.8337 C   0  0  0  0  0  0  0  0  0  0  0  0
    1.1087    1.9342   -2.5820 F   0  0  0  0  0  0  0  0  0  0  0  0
    4.6186   -1.1608    0.5656 C   0  0  0  0  0  0  0  0  0  0  0  0
    5.8890   -1.2179    0.0751 F   0  0  0  0  0  0  0  0  0  0  0  0
    4.7306   -0.6695    1.8299 F   0  0  0  0  0  0  0  0  0  0  0  0
    4.2137   -2.4536    0.6953 F   0  0  0  0  0  0  0  0  0  0  0  0
   -1.7926   -2.4627    0.8319 H   0  0  0  0  0  0  0  0  0  0  0  0
   -3.4013   -2.9464    0.9610 H   0  0  0  0  0  0  0  0  0  0  0  0
   -5.2319   -1.4457    0.4624 H   0  0  0  0  0  0  0  0  0  0  0  0
   -5.9694    0.8962    0.2795 H   0  0  0  0  0  0  0  0  0  0  0  0
   -1.8812    2.2097    0.1870 H   0  0  0  0  0  0  0  0  0  0  0  0
   -0.4746    1.0628   -1.2430 H   0  0  0  0  0  0  0  0  0  0  0  0
    1.9450   -0.9481    0.8112 H   0  0  0  0  0  0  0  0  0  0  0  0
    5.2413    0.4680   -1.5708 H   0  0  0  0  0  0  0  0  0  0  0  0
    3.6701    1.8230   -2.9374 H   0  0  0  0  0  0  0  0  0  0  0  0
  1  2  1  0
  2  3  2  0
  3  4  1  0
  4  5  2  0
  5  6  1  0
  5  7  1  0
  7  8  2  0
  8  9  1  0
  9 10  2  0
  9 11  1  0
 11 12  1  0
 12 13  2  0
 13 14  1  0
 14 15  2  0
 15 16  1  0
 16 17  2  0
 17 18  1  0
 14 19  1  0
 19 20  1  0
 19 21  1  0
 19 22  1  0
  8  2  1  0
 17 12  1  0
  1 23  1  0
  1 24  1  0
  3 25  1  0
  4 26  1  0
  7 27  1  0
 11 28  1  0
 13 29  1  0
 15 30  1  0
 16 31  1  0
M  END
>  <Unnamed: 0>  (6) 
355

>  <ID>  (6) 
TRAIN_0355

>  <Canonical_Smiles>  (6) 
Nc1ccc(Cl)cc1C(=O)Nc2cc(ccc2F)C(F)(F)F

>  <Inhibition>  (6) 
28.0

>  <TDC_conf_true_inhibitor>  (6) 
0

>  <TDC_conf_non_inhibitor>  (6) 
1

>  <split>  (6) 
1

$$$$
6
     RDKit          3D

 38 39  0  0  0  0  0  0  0  0999 V2000
   -2.5638   -2.7962    0.0464 C   0  0  0  0  0  0  0  0  0  0  0  0
   -1.9399   -1.5145    0.0273 O   0  0  0  0  0  0  0  0  0  0  0  0
   -2.7427   -0.4017    0.0770 C   0  0  0  0  0  0  0  0  0  0  0  0
   -4.1453   -0.4735    0.1031 C   0  0  0  0  0  0  0  0  0  0  0  0
   -4.9249    0.6859    0.1531 C   0  0  0  0  0  0  0  0  0  0  0  0
   -4.3034    1.9358    0.1767 C   0  0  0  0  0  0  0  0  0  0  0  0
   -2.9086    2.0301    0.1501 C   0  0  0  0  0  0  0  0  0  0  0  0
   -2.1132    0.8657    0.0995 C   0  0  0  0  0  0  0  0  0  0  0  0
   -0.6207    1.0896    0.0756 C   0  0  0  0  0  0  0  0  0  0  0  0
   -0.2089    2.2443    0.1315 O   0  0  0  0  0  0  0  0  0  0  0  0
    0.1788   -0.0322   -0.0110 N   0  0  0  0  0  0  0  0  0  0  0  0
    1.5851   -0.1007   -0.0497 C   0  0  0  0  0  0  0  0  0  0  0  0
    2.4260    1.0122   -0.0028 C   0  0  0  0  0  0  0  0  0  0  0  0
    3.8243    0.8674   -0.0476 C   0  0  0  0  0  0  0  0  0  0  0  0
    4.3749   -0.4196   -0.1464 C   0  0  0  0  0  0  0  0  0  0  0  0
    3.5485   -1.5519   -0.1848 C   0  0  0  0  0  0  0  0  0  0  0  0
    2.1553   -1.3764   -0.1429 C   0  0  0  0  0  0  0  0  0  0  0  0
    4.1400   -2.9348   -0.3109 C   0  0  0  0  0  0  0  0  0  0  0  0
    4.3157   -3.3036   -1.6088 F   0  0  0  0  0  0  0  0  0  0  0  0
    5.3593   -3.0505    0.2831 F   0  0  0  0  0  0  0  0  0  0  0  0
    3.3592   -3.9003    0.2501 F   0  0  0  0  0  0  0  0  0  0  0  0
    4.7045    2.0948   -0.0121 C   0  0  0  0  0  0  0  0  0  0  0  0
    6.0255    1.8008    0.1533 F   0  0  0  0  0  0  0  0  0  0  0  0
    4.6278    2.8229   -1.1593 F   0  0  0  0  0  0  0  0  0  0  0  0
    4.3862    2.9455    1.0013 F   0  0  0  0  0  0  0  0  0  0  0  0
   -5.1223    3.1543    0.2290 N   0  0  0  0  0  4  0  0  0  0  0  0
   -4.5369    4.2449    0.2351 O   0  0  0  0  0  0  0  0  0  0  0  0
   -6.3533    3.0156    0.2634 O   0  0  0  0  0  1  0  0  0  0  0  0
   -3.1885   -2.9423   -0.8406 H   0  0  0  0  0  0  0  0  0  0  0  0
   -3.1357   -2.9428    0.9684 H   0  0  0  0  0  0  0  0  0  0  0  0
   -1.7714   -3.5505    0.0231 H   0  0  0  0  0  0  0  0  0  0  0  0
   -4.6728   -1.4232    0.0846 H   0  0  0  0  0  0  0  0  0  0  0  0
   -6.0098    0.5936    0.1724 H   0  0  0  0  0  0  0  0  0  0  0  0
   -2.4282    3.0089    0.1682 H   0  0  0  0  0  0  0  0  0  0  0  0
   -0.3145   -0.9189   -0.0483 H   0  0  0  0  0  0  0  0  0  0  0  0
    2.0213    2.0193    0.0682 H   0  0  0  0  0  0  0  0  0  0  0  0
    5.4586   -0.5417   -0.1913 H   0  0  0  0  0  0  0  0  0  0  0  0
    1.5140   -2.2563   -0.1843 H   0  0  0  0  0  0  0  0  0  0  0  0
  1  2  1  0
  2  3  1  0
  3  4  2  0
  4  5  1  0
  5  6  2  0
  6  7  1  0
  7  8  2  0
  8  9  1  0
  9 10  2  0
  9 11  1  0
 11 12  1  0
 12 13  2  0
 13 14  1  0
 14 15  2  0
 15 16  1  0
 16 17  2  0
 16 18  1  0
 18 19  1  0
 18 20  1  0
 18 21  1  0
 14 22  1  0
 22 23  1  0
 22 24  1  0
 22 25  1  0
  6 26  1  0
 26 27  2  0
 26 28  1  0
  8  3  1  0
 17 12  1  0
  1 29  1  0
  1 30  1  0
  1 31  1  0
  4 32  1  0
  5 33  1  0
  7 34  1  0
 11 35  1  0
 13 36  1  0
 15 37  1  0
 17 38  1  0
M  CHG  2  26   1  28  -1
M  END
>  <Unnamed: 0>  (7) 
369

>  <ID>  (7) 
TRAIN_0369

>  <Canonical_Smiles>  (7) 
COc1ccc(cc1C(=O)Nc2cc(cc(c2)C(F)(F)F)C(F)(F)F)[N+](=O)[O-]

>  <Inhibition>  (7) 
48.4

>  <TDC_conf_true_inhibitor>  (7) 
1

>  <TDC_conf_non_inhibitor>  (7) 
0

>  <split>  (7) 
1

$$$$
7
     RDKit          3D

 58 61  0  0  0  0  0  0  0  0999 V2000
    6.8671   -0.2063    0.2126 C   0  0  0  0  0  0  0  0  0  0  0  0
    6.0362    0.0133   -0.9207 O   0  0  0  0  0  0  0  0  0  0  0  0
    4.6874   -0.0952   -0.7256 C   0  0  0  0  0  0  0  0  0  0  0  0
    4.0488   -0.3196    0.4913 C   0  0  0  0  0  0  0  0  0  0  0  0
    2.6511   -0.4060    0.5500 C   0  0  0  0  0  0  0  0  0  0  0  0
    1.8553   -0.2633   -0.6025 C   0  0  0  0  0  0  0  0  0  0  0  0
    2.5215   -0.0500   -1.8215 C   0  0  0  0  0  0  0  0  0  0  0  0
    3.9157    0.0403   -1.8787 C   0  0  0  0  0  0  0  0  0  0  0  0
    0.3128   -0.3729   -0.5413 C   0  0  0  0  0  0  0  0  0  0  0  0
    0.0320   -1.3315    0.5161 O   0  0  0  0  0  0  0  0  0  0  0  0
   -0.5275   -2.4276   -0.1706 N   0  0  0  0  0  0  0  0  0  0  0  0
    0.0889   -3.6759    0.2402 C   0  0  0  0  0  0  0  0  0  0  0  0
   -0.5931   -2.0692   -1.4859 C   0  0  0  0  0  0  0  0  0  0  0  0
   -0.2035   -0.8848   -1.8544 N   0  0  0  0  0  0  0  0  0  0  0  0
   -1.1113   -2.9652   -2.3567 N   0  0  0  0  0  0  0  0  0  0  0  0
   -0.4367    1.0055   -0.2288 C   0  0  0  0  0  0  0  0  0  0  0  0
   -1.9791    0.7337   -0.1292 C   0  0  0  0  0  0  0  0  0  0  0  0
   -2.3002   -0.0298    1.0366 O   0  0  0  0  0  0  0  0  0  0  0  0
   -3.5868   -0.4677    1.1696 C   0  0  0  0  0  0  0  0  0  0  0  0
   -4.6660   -0.0981    0.3677 C   0  0  0  0  0  0  0  0  0  0  0  0
   -5.9298   -0.6256    0.6301 C   0  0  0  0  0  0  0  0  0  0  0  0
   -6.9614   -0.2663   -0.1455 F   0  0  0  0  0  0  0  0  0  0  0  0
   -6.1419   -1.5126    1.6759 C   0  0  0  0  0  0  0  0  0  0  0  0
   -5.0629   -1.8715    2.4689 C   0  0  0  0  0  0  0  0  0  0  0  0
   -5.2463   -2.7274    3.4831 F   0  0  0  0  0  0  0  0  0  0  0  0
   -3.7931   -1.3569    2.2274 C   0  0  0  0  0  0  0  0  0  0  0  0
   -0.2244    2.0321   -1.3890 C   0  0  0  0  0  0  0  0  0  0  0  0
   -0.4662    3.4764   -0.9535 C   0  0  0  0  0  0  0  0  0  0  0  0
    0.5002    3.9114    0.1464 C   0  0  0  0  0  0  0  0  0  0  0  0
    1.0338    2.7514    0.9845 C   0  0  0  0  0  0  0  0  0  0  0  0
    0.0040    1.6339    1.1344 C   0  0  0  0  0  0  0  0  0  0  0  0
    7.9079   -0.1112   -0.1127 H   0  0  0  0  0  0  0  0  0  0  0  0
    6.6901    0.5477    0.9864 H   0  0  0  0  0  0  0  0  0  0  0  0
    6.7333   -1.2189    0.6089 H   0  0  0  0  0  0  0  0  0  0  0  0
    4.6033   -0.4325    1.4164 H   0  0  0  0  0  0  0  0  0  0  0  0
    2.1877   -0.5902    1.5167 H   0  0  0  0  0  0  0  0  0  0  0  0
    1.9555    0.0471   -2.7464 H   0  0  0  0  0  0  0  0  0  0  0  0
    4.4019    0.2116   -2.8366 H   0  0  0  0  0  0  0  0  0  0  0  0
    0.0575   -3.7714    1.3307 H   0  0  0  0  0  0  0  0  0  0  0  0
   -0.4460   -4.5325   -0.1821 H   0  0  0  0  0  0  0  0  0  0  0  0
    1.1348   -3.7186   -0.0801 H   0  0  0  0  0  0  0  0  0  0  0  0
   -1.9255   -3.4452   -1.9923 H   0  0  0  0  0  0  0  0  0  0  0  0
   -1.3029   -2.5316   -3.2540 H   0  0  0  0  0  0  0  0  0  0  0  0
   -2.3315    0.2196   -1.0314 H   0  0  0  0  0  0  0  0  0  0  0  0
   -2.5134    1.6889   -0.0599 H   0  0  0  0  0  0  0  0  0  0  0  0
   -4.5677    0.5955   -0.4594 H   0  0  0  0  0  0  0  0  0  0  0  0
   -7.1289   -1.9146    1.8693 H   0  0  0  0  0  0  0  0  0  0  0  0
   -2.9637   -1.6548    2.8620 H   0  0  0  0  0  0  0  0  0  0  0  0
   -0.8847    1.7935   -2.2323 H   0  0  0  0  0  0  0  0  0  0  0  0
    0.7962    1.9829   -1.7797 H   0  0  0  0  0  0  0  0  0  0  0  0
   -1.4968    3.5962   -0.6003 H   0  0  0  0  0  0  0  0  0  0  0  0
   -0.3623    4.1481   -1.8137 H   0  0  0  0  0  0  0  0  0  0  0  0
    1.3510    4.4440   -0.2961 H   0  0  0  0  0  0  0  0  0  0  0  0
   -0.0074    4.6362    0.7936 H   0  0  0  0  0  0  0  0  0  0  0  0
    1.3253    3.1251    1.9739 H   0  0  0  0  0  0  0  0  0  0  0  0
    1.9487    2.3671    0.5225 H   0  0  0  0  0  0  0  0  0  0  0  0
    0.3778    0.8693    1.8226 H   0  0  0  0  0  0  0  0  0  0  0  0
   -0.8648    2.0741    1.6433 H   0  0  0  0  0  0  0  0  0  0  0  0
  1  2  1  0
  2  3  1  0
  3  4  2  0
  4  5  1  0
  5  6  2  0
  6  7  1  0
  7  8  2  0
  6  9  1  0
  9 10  1  0
 10 11  1  0
 11 12  1  0
 11 13  1  0
 13 14  2  0
 13 15  1  0
  9 16  1  0
 16 17  1  0
 17 18  1  0
 18 19  1  0
 19 20  2  0
 20 21  1  0
 21 22  1  0
 21 23  2  0
 23 24  1  0
 24 25  1  0
 24 26  2  0
 16 27  1  0
 27 28  1  0
 28 29  1  0
 29 30  1  0
 30 31  1  0
  8  3  1  0
 14  9  1  0
 31 16  1  0
 26 19  1  0
  1 32  1  0
  1 33  1  0
  1 34  1  0
  4 35  1  0
  5 36  1  0
  7 37  1  0
  8 38  1  0
 12 39  1  0
 12 40  1  0
 12 41  1  0
 15 42  1  0
 15 43  1  0
 17 44  1  0
 17 45  1  0
 20 46  1  0
 23 47  1  0
 26 48  1  0
 27 49  1  0
 27 50  1  0
 28 51  1  0
 28 52  1  0
 29 53  1  0
 29 54  1  0
 30 55  1  0
 30 56  1  0
 31 57  1  0
 31 58  1  0
M  END
>  <Unnamed: 0>  (8) 
24

>  <ID>  (8) 
TRAIN_0024

>  <Canonical_Smiles>  (8) 
COc1ccc(cc1)C2(ON(C)C(=N2)N)C3(COc4cc(F)cc(F)c4)CCCCC3

>  <Inhibition>  (8) 
90.5

>  <TDC_conf_true_inhibitor>  (8) 
1

>  <TDC_conf_non_inhibitor>  (8) 
0

>  <split>  (8) 
1

$$$$
8
     RDKit          3D

 50 52  0  0  0  0  0  0  0  0999 V2000
    2.6111    1.6163    2.6271 C   0  0  0  0  0  0  0  0  0  0  0  0
    3.0510    0.1628    2.5289 C   0  0  0  0  0  0  0  0  0  0  0  0
    3.4767   -0.2125    1.1269 C   0  0  0  0  0  0  0  0  0  0  0  0
    4.8528   -0.2303    0.8288 C   0  0  0  0  0  0  0  0  0  0  0  0
    5.3081   -0.5319   -0.4546 C   0  0  0  0  0  0  0  0  0  0  0  0
    4.3934   -0.8105   -1.4639 C   0  0  0  0  0  0  0  0  0  0  0  0
    3.0237   -0.7924   -1.1794 C   0  0  0  0  0  0  0  0  0  0  0  0
    2.0405   -1.0748   -2.2469 C   0  0  0  0  0  0  0  0  0  0  0  0
    2.4292   -1.2735   -3.3947 O   0  0  0  0  0  0  0  0  0  0  0  0
    0.5921   -1.1053   -1.8917 C   0  0  0  0  0  0  0  0  0  0  0  0
    0.2188   -0.7740   -0.6269 C   0  0  0  0  0  0  0  0  0  0  0  0
   -1.1154   -0.7818   -0.2185 N   0  0  0  0  0  0  0  0  0  0  0  0
   -1.7117    0.1498    0.7489 C   0  0  0  0  0  0  0  0  0  0  0  0
   -1.7479    1.5627    0.1365 C   0  0  0  0  0  0  0  0  0  0  0  0
   -2.7446    2.4631    0.8518 C   0  0  0  0  0  0  0  0  0  0  0  0
   -4.1708    1.9199    0.7760 C   0  0  0  0  0  0  0  0  0  0  0  0
   -4.2397    0.4219    0.4791 C   0  0  0  0  0  0  0  0  0  0  0  0
   -3.1166   -0.3832    1.1457 C   0  0  0  0  0  0  0  0  0  0  0  0
   -3.2861   -0.4096    2.6700 C   0  0  0  0  0  0  0  0  0  0  0  0
    1.1664   -0.4398    0.3196 N   0  0  0  0  0  0  0  0  0  0  0  0
    2.5493   -0.5163    0.1093 C   0  0  0  0  0  0  0  0  0  0  0  0
   -0.4348   -1.5140   -2.9028 C   0  0  0  0  0  0  0  0  0  0  0  0
   -1.5895   -1.0779   -2.8490 O   0  0  0  0  0  0  0  0  0  0  0  0
   -0.0497   -2.5011   -3.9746 C   0  0  0  0  0  0  0  0  0  0  0  0
    1.7452    1.8212    1.9893 H   0  0  0  0  0  0  0  0  0  0  0  0
    2.3335    1.8573    3.6581 H   0  0  0  0  0  0  0  0  0  0  0  0
    3.4170    2.2939    2.3255 H   0  0  0  0  0  0  0  0  0  0  0  0
    3.8814   -0.0068    3.2260 H   0  0  0  0  0  0  0  0  0  0  0  0
    2.2492   -0.5025    2.8691 H   0  0  0  0  0  0  0  0  0  0  0  0
    5.5836    0.0031    1.6016 H   0  0  0  0  0  0  0  0  0  0  0  0
    6.3741   -0.5388   -0.6682 H   0  0  0  0  0  0  0  0  0  0  0  0
    4.7453   -1.0338   -2.4686 H   0  0  0  0  0  0  0  0  0  0  0  0
   -1.7404   -0.9035   -1.0300 H   0  0  0  0  0  0  0  0  0  0  0  0
   -1.0870    0.1762    1.6497 H   0  0  0  0  0  0  0  0  0  0  0  0
   -0.7474    2.0096    0.1876 H   0  0  0  0  0  0  0  0  0  0  0  0
   -2.0051    1.5173   -0.9303 H   0  0  0  0  0  0  0  0  0  0  0  0
   -2.7135    3.4729    0.4265 H   0  0  0  0  0  0  0  0  0  0  0  0
   -2.4472    2.5651    1.9027 H   0  0  0  0  0  0  0  0  0  0  0  0
   -4.6861    2.1401    1.7188 H   0  0  0  0  0  0  0  0  0  0  0  0
   -4.7275    2.4553   -0.0030 H   0  0  0  0  0  0  0  0  0  0  0  0
   -5.2212    0.0351    0.7786 H   0  0  0  0  0  0  0  0  0  0  0  0
   -4.1768    0.2740   -0.6073 H   0  0  0  0  0  0  0  0  0  0  0  0
   -3.2207   -1.4256    0.8139 H   0  0  0  0  0  0  0  0  0  0  0  0
   -4.2777   -0.7859    2.9430 H   0  0  0  0  0  0  0  0  0  0  0  0
   -3.1665    0.5822    3.1160 H   0  0  0  0  0  0  0  0  0  0  0  0
   -2.5434   -1.0732    3.1262 H   0  0  0  0  0  0  0  0  0  0  0  0
    0.8385   -0.5412    1.2696 H   0  0  0  0  0  0  0  0  0  0  0  0
   -0.9376   -3.0685   -4.2706 H   0  0  0  0  0  0  0  0  0  0  0  0
    0.6827   -3.2206   -3.5991 H   0  0  0  0  0  0  0  0  0  0  0  0
    0.3414   -1.9705   -4.8457 H   0  0  0  0  0  0  0  0  0  0  0  0
  1  2  1  0
  2  3  1  0
  3  4  2  0
  4  5  1  0
  5  6  2  0
  6  7  1  0
  7  8  1  0
  8  9  2  0
  8 10  1  0
 10 11  2  0
 11 12  1  0
 12 13  1  0
 13 14  1  0
 14 15  1  0
 15 16  1  0
 16 17  1  0
 17 18  1  0
 18 19  1  0
 11 20  1  0
 20 21  1  0
 10 22  1  0
 22 23  2  0
 22 24  1  0
 21  3  1  0
 21  7  2  0
 18 13  1  0
  1 25  1  0
  1 26  1  0
  1 27  1  0
  2 28  1  0
  2 29  1  0
  4 30  1  0
  5 31  1  0
  6 32  1  0
 12 33  1  0
 13 34  1  0
 14 35  1  0
 14 36  1  0
 15 37  1  0
 15 38  1  0
 16 39  1  0
 16 40  1  0
 17 41  1  0
 17 42  1  0
 18 43  1  0
 19 44  1  0
 19 45  1  0
 19 46  1  0
 20 47  1  0
 24 48  1  0
 24 49  1  0
 24 50  1  0
M  END
>  <Unnamed: 0>  (9) 
32

>  <ID>  (9) 
TRAIN_0032

>  <Canonical_Smiles>  (9) 
CCc1cccc2C(=O)C(=C(NC3CCCCC3C)Nc12)C(=O)C

>  <Inhibition>  (9) 
57.4

>  <TDC_conf_true_inhibitor>  (9) 
1

>  <TDC_conf_non_inhibitor>  (9) 
0

>  <split>  (9) 
1

$$$$
9
     RDKit          3D

 39 40  0  0  0  0  0  0  0  0999 V2000
    1.7163    1.5275   -1.4746 C   0  0  0  0  0  0  0  0  0  0  0  0
    2.9736    0.7140   -1.2063 C   0  0  0  0  0  0  0  0  0  0  0  0
    3.3132    0.6508    0.2792 C   0  0  0  0  0  0  0  0  0  0  0  0
    2.2842   -0.0345    1.0078 O   0  0  0  0  0  0  0  0  0  0  0  0
    2.4622   -1.3726    1.1669 C   0  0  0  0  0  0  0  0  0  0  0  0
    3.4218   -2.0278    0.7874 O   0  0  0  0  0  0  0  0  0  0  0  0
    1.3757   -1.9644    1.9805 C   0  0  2  0  0  0  0  0  0  0  0  0
    0.7274   -3.2745    1.6691 C   0  0  2  0  0  0  0  0  0  0  0  0
    1.1196   -4.1418    0.5234 C   0  0  0  0  0  0  0  0  0  0  0  0
    0.0098   -2.0440    1.5136 N   0  0  0  0  0  0  0  0  0  0  0  0
   -0.3751   -1.5313    0.2864 C   0  0  0  0  0  0  0  0  0  0  0  0
    0.2423   -1.6264   -0.7657 O   0  0  0  0  0  0  0  0  0  0  0  0
   -1.5675   -0.8987    0.4237 O   0  0  0  0  0  0  0  0  0  0  0  0
   -2.1106   -0.2990   -0.7590 C   0  0  0  0  0  0  0  0  0  0  0  0
   -2.6283    1.0783   -0.4205 C   0  0  0  0  0  0  0  0  0  0  0  0
   -2.2406    2.1897   -1.1826 C   0  0  0  0  0  0  0  0  0  0  0  0
   -2.7258    3.4625   -0.8782 C   0  0  0  0  0  0  0  0  0  0  0  0
   -3.6064    3.6378    0.1877 C   0  0  0  0  0  0  0  0  0  0  0  0
   -4.0058    2.5404    0.9481 C   0  0  0  0  0  0  0  0  0  0  0  0
   -3.5221    1.2667    0.6443 C   0  0  0  0  0  0  0  0  0  0  0  0
    0.8487    1.0961   -0.9686 H   0  0  0  0  0  0  0  0  0  0  0  0
    1.8343    2.5587   -1.1284 H   0  0  0  0  0  0  0  0  0  0  0  0
    1.5041    1.5527   -2.5478 H   0  0  0  0  0  0  0  0  0  0  0  0
    2.8254   -0.2991   -1.5971 H   0  0  0  0  0  0  0  0  0  0  0  0
    3.8125    1.1612   -1.7509 H   0  0  0  0  0  0  0  0  0  0  0  0
    3.3841    1.6622    0.6952 H   0  0  0  0  0  0  0  0  0  0  0  0
    4.2902    0.1797    0.4331 H   0  0  0  0  0  0  0  0  0  0  0  0
    1.4308   -1.6870    3.0273 H   0  0  0  0  0  0  0  0  0  0  0  0
    0.3540   -3.8675    2.4964 H   0  0  0  0  0  0  0  0  0  0  0  0
    0.2354   -4.6309    0.1034 H   0  0  0  0  0  0  0  0  0  0  0  0
    1.7979   -4.9265    0.8732 H   0  0  0  0  0  0  0  0  0  0  0  0
    1.6288   -3.6115   -0.2842 H   0  0  0  0  0  0  0  0  0  0  0  0
   -1.3829   -0.2357   -1.5754 H   0  0  0  0  0  0  0  0  0  0  0  0
   -2.9462   -0.9191   -1.1037 H   0  0  0  0  0  0  0  0  0  0  0  0
   -1.5546    2.0725   -2.0188 H   0  0  0  0  0  0  0  0  0  0  0  0
   -2.4157    4.3177   -1.4734 H   0  0  0  0  0  0  0  0  0  0  0  0
   -3.9811    4.6297    0.4258 H   0  0  0  0  0  0  0  0  0  0  0  0
   -4.6925    2.6762    1.7794 H   0  0  0  0  0  0  0  0  0  0  0  0
   -3.8375    0.4179    1.2476 H   0  0  0  0  0  0  0  0  0  0  0  0
  1  2  1  0
  2  3  1  0
  3  4  1  0
  4  5  1  0
  5  6  2  0
  5  7  1  0
  7  8  1  0
  8  9  1  0
  8 10  1  0
 10 11  1  0
 11 12  2  0
 11 13  1  0
 13 14  1  0
 14 15  1  0
 15 16  2  0
 16 17  1  0
 17 18  2  0
 18 19  1  0
 19 20  2  0
 10  7  1  0
 20 15  1  0
  1 21  1  0
  1 22  1  0
  1 23  1  0
  2 24  1  0
  2 25  1  0
  3 26  1  0
  3 27  1  0
  7 28  1  1
  8 29  1  1
  9 30  1  0
  9 31  1  0
  9 32  1  0
 14 33  1  0
 14 34  1  0
 16 35  1  0
 17 36  1  0
 18 37  1  0
 19 38  1  0
 20 39  1  0
M  END
>  <Unnamed: 0>  (10) 
33

>  <ID>  (10) 
TRAIN_0033

>  <Canonical_Smiles>  (10) 
CCCOC(=O)[C@@H]1[C@H](C)N1C(=O)OCc2ccccc2

>  <Inhibition>  (10) 
7.92

>  <TDC_conf_true_inhibitor>  (10) 
0

>  <TDC_conf_non_inhibitor>  (10) 
1

>  <split>  (10) 
1

$$$$
10
     RDKit          3D

 60 63  0  0  0  0  0  0  0  0999 V2000
   10.9209    0.1460   -0.8077 C   0  0  0  0  0  0  0  0  0  0  0  0
    9.5135   -0.0931   -0.8571 O   0  0  0  0  0  0  0  0  0  0  0  0
    8.7835    0.7222   -0.0433 C   0  0  0  0  0  0  0  0  0  0  0  0
    9.2483    1.5925    0.6786 O   0  0  0  0  0  0  0  0  0  0  0  0
    7.3202    0.3866   -0.1795 C   0  0  0  0  0  0  0  0  0  0  0  0
    6.4707    1.2209    0.7749 C   0  0  0  0  0  0  0  0  0  0  0  0
    5.0045    0.8895    0.6412 C   0  0  0  0  0  0  0  0  0  0  0  0
    4.4402   -0.1476    1.3913 C   0  0  0  0  0  0  0  0  0  0  0  0
    3.0786   -0.4728    1.2727 C   0  0  0  0  0  0  0  0  0  0  0  0
    2.5244   -1.5786    2.1334 C   0  0  0  0  0  0  0  0  0  0  0  0
    2.2707    0.2400    0.3572 C   0  0  0  0  0  0  0  0  0  0  0  0
    2.8342    1.2912   -0.4010 C   0  0  0  0  0  0  0  0  0  0  0  0
    2.0045    2.1046   -1.3608 C   0  0  0  0  0  0  0  0  0  0  0  0
    4.1950    1.6031   -0.2484 C   0  0  0  0  0  0  0  0  0  0  0  0
    0.8586   -0.1064    0.1840 C   0  0  0  0  0  0  0  0  0  0  0  0
   -0.1851    0.6275    0.5194 N   0  0  0  0  0  0  0  0  0  0  0  0
   -1.2888   -0.1036    0.1553 C   0  0  0  0  0  0  0  0  0  0  0  0
   -2.6511    0.2004    0.2961 C   0  0  0  0  0  0  0  0  0  0  0  0
   -3.6092   -0.7218   -0.1564 C   0  0  0  0  0  0  0  0  0  0  0  0
   -4.9650   -0.3606   -0.0006 N   0  0  0  0  0  0  0  0  0  0  0  0
   -6.0694   -1.1707   -0.1426 C   0  0  0  0  0  0  0  0  0  0  0  0
   -6.0324   -2.3918   -0.2667 O   0  0  0  0  0  0  0  0  0  0  0  0
   -7.2842   -0.4770   -0.0972 N   0  0  0  0  0  0  0  0  0  0  0  0
   -7.4336    0.8805   -0.6418 C   0  0  0  0  0  0  0  0  0  0  0  0
   -8.7234    1.5454   -0.1513 C   0  0  0  0  0  0  0  0  0  0  0  0
   -9.8671    0.7246   -0.4214 O   0  0  0  0  0  0  0  0  0  0  0  0
   -9.7404   -0.5402    0.2449 C   0  0  0  0  0  0  0  0  0  0  0  0
   -8.4956   -1.2925   -0.2288 C   0  0  0  0  0  0  0  0  0  0  0  0
   -3.1940   -1.9155   -0.7586 C   0  0  0  0  0  0  0  0  0  0  0  0
   -1.8362   -2.2371   -0.9081 C   0  0  0  0  0  0  0  0  0  0  0  0
   -0.9173   -1.3034   -0.4340 C   0  0  0  0  0  0  0  0  0  0  0  0
    0.4517   -1.2789   -0.4098 N   0  0  0  0  0  0  0  0  0  0  0  0
   11.1485    1.1626   -1.1432 H   0  0  0  0  0  0  0  0  0  0  0  0
   11.3040   -0.0248    0.2032 H   0  0  0  0  0  0  0  0  0  0  0  0
   11.4081   -0.5597   -1.4862 H   0  0  0  0  0  0  0  0  0  0  0  0
    7.0206    0.5738   -1.2171 H   0  0  0  0  0  0  0  0  0  0  0  0
    7.1902   -0.6803    0.0365 H   0  0  0  0  0  0  0  0  0  0  0  0
    6.6230    2.2917    0.5866 H   0  0  0  0  0  0  0  0  0  0  0  0
    6.7889    1.0575    1.8130 H   0  0  0  0  0  0  0  0  0  0  0  0
    5.0664   -0.7003    2.0902 H   0  0  0  0  0  0  0  0  0  0  0  0
    1.6014   -1.2607    2.6291 H   0  0  0  0  0  0  0  0  0  0  0  0
    2.3297   -2.4688    1.5276 H   0  0  0  0  0  0  0  0  0  0  0  0
    3.2283   -1.8593    2.9244 H   0  0  0  0  0  0  0  0  0  0  0  0
    1.2654    2.6989   -0.8145 H   0  0  0  0  0  0  0  0  0  0  0  0
    2.6256    2.7978   -1.9382 H   0  0  0  0  0  0  0  0  0  0  0  0
    1.4968    1.4540   -2.0802 H   0  0  0  0  0  0  0  0  0  0  0  0
    4.6274    2.4169   -0.8285 H   0  0  0  0  0  0  0  0  0  0  0  0
   -2.9276    1.1407    0.7574 H   0  0  0  0  0  0  0  0  0  0  0  0
   -5.1333    0.5007    0.4946 H   0  0  0  0  0  0  0  0  0  0  0  0
   -6.5786    1.5131   -0.3930 H   0  0  0  0  0  0  0  0  0  0  0  0
   -7.4588    0.7741   -1.7334 H   0  0  0  0  0  0  0  0  0  0  0  0
   -8.8690    2.5012   -0.6644 H   0  0  0  0  0  0  0  0  0  0  0  0
   -8.6756    1.7475    0.9253 H   0  0  0  0  0  0  0  0  0  0  0  0
   -9.7089   -0.3697    1.3276 H   0  0  0  0  0  0  0  0  0  0  0  0
  -10.6383   -1.1261    0.0248 H   0  0  0  0  0  0  0  0  0  0  0  0
   -8.3868   -2.2237    0.3378 H   0  0  0  0  0  0  0  0  0  0  0  0
   -8.5926   -1.5489   -1.2910 H   0  0  0  0  0  0  0  0  0  0  0  0
   -3.9200   -2.6313   -1.1368 H   0  0  0  0  0  0  0  0  0  0  0  0
   -1.5305   -3.1683   -1.3724 H   0  0  0  0  0  0  0  0  0  0  0  0
    1.0691   -1.9922   -0.7673 H   0  0  0  0  0  0  0  0  0  0  0  0
  1  2  1  0
  2  3  1  0
  3  4  2  0
  3  5  1  0
  5  6  1  0
  6  7  1  0
  7  8  2  0
  8  9  1  0
  9 10  1  0
  9 11  2  0
 11 12  1  0
 12 13  1  0
 12 14  2  0
 11 15  1  0
 15 16  2  0
 16 17  1  0
 17 18  2  0
 18 19  1  0
 19 20  1  0
 20 21  1  0
 21 22  2  0
 21 23  1  0
 23 24  1  0
 24 25  1  0
 25 26  1  0
 26 27  1  0
 27 28  1  0
 19 29  2  0
 29 30  1  0
 30 31  2  0
 31 32  1  0
 14  7  1  0
 32 15  1  0
 31 17  1  0
 28 23  1  0
  1 33  1  0
  1 34  1  0
  1 35  1  0
  5 36  1  0
  5 37  1  0
  6 38  1  0
  6 39  1  0
  8 40  1  0
 10 41  1  0
 10 42  1  0
 10 43  1  0
 13 44  1  0
 13 45  1  0
 13 46  1  0
 14 47  1  0
 18 48  1  0
 20 49  1  0
 24 50  1  0
 24 51  1  0
 25 52  1  0
 25 53  1  0
 27 54  1  0
 27 55  1  0
 28 56  1  0
 28 57  1  0
 29 58  1  0
 30 59  1  0
 32 60  1  0
M  END
>  <Unnamed: 0>  (11) 
42

>  <ID>  (11) 
TRAIN_0042

>  <Canonical_Smiles>  (11) 
COC(=O)CCc1cc(C)c(c(C)c1)c2nc3cc(NC(=O)N4CCOCC4)ccc3[nH]2

>  <Inhibition>  (11) 
25.3

>  <TDC_conf_true_inhibitor>  (11) 
1

>  <TDC_conf_non_inhibitor>  (11) 
0

>  <split>  (11) 
1

$$$$
11
     RDKit          3D

 36 37  0  0  0  0  0  0  0  0999 V2000
    4.8216    0.6039    0.0635 C   0  0  0  0  0  0  0  0  0  0  0  0
    4.3340   -0.8189    0.2933 C   0  0  0  0  0  0  0  0  0  0  0  0
    2.8611   -0.8907    0.6949 C   0  0  0  0  0  0  0  0  0  0  0  0
    1.9030   -0.6070   -0.4524 C   0  0  0  0  0  0  0  0  0  0  0  0
    2.2533   -0.4673   -1.6234 O   0  0  0  0  0  0  0  0  0  0  0  0
    0.4464   -0.5809   -0.1321 C   0  0  0  0  0  0  0  0  0  0  0  0
   -0.2756    0.5574   -0.0996 C   0  0  0  0  0  0  0  0  0  0  0  0
   -1.7334    0.4974    0.1463 C   0  0  0  0  0  0  0  0  0  0  0  0
   -2.5724    1.6221    0.1960 C   0  0  0  0  0  0  0  0  0  0  0  0
   -3.9447    1.4845    0.4258 C   0  0  0  0  0  0  0  0  0  0  0  0
   -4.9421    2.8850    0.4766 Cl  0  0  0  0  0  0  0  0  0  0  0  0
   -4.5128    0.2284    0.6120 C   0  0  0  0  0  0  0  0  0  0  0  0
   -3.7065   -0.9155    0.5707 C   0  0  0  0  0  0  0  0  0  0  0  0
   -2.3305   -0.7517    0.3375 C   0  0  0  0  0  0  0  0  0  0  0  0
   -1.5474   -1.9189    0.3067 O   0  0  0  0  0  0  0  0  0  0  0  0
   -0.1797   -1.8973    0.0906 C   0  0  0  0  0  0  0  0  0  0  0  0
    0.4699   -2.9359    0.0983 O   0  0  0  0  0  0  0  0  0  0  0  0
   -4.3021   -2.2850    0.7725 C   0  0  0  0  0  0  0  0  0  0  0  0
   -4.1192   -3.0988   -0.3017 F   0  0  0  0  0  0  0  0  0  0  0  0
   -5.6479   -2.2544    0.9863 F   0  0  0  0  0  0  0  0  0  0  0  0
   -3.7741   -2.9329    1.8453 F   0  0  0  0  0  0  0  0  0  0  0  0
    0.4944    2.1768   -0.2450 S   0  0  0  0  0  4  0  0  0  0  0  0
    1.8842    2.0658    0.2970 O   0  0  0  0  0  0  0  0  0  0  0  0
    0.5573    2.3039   -2.0455 C   0  0  0  0  0  0  0  0  0  0  0  0
    4.3027    1.0766   -0.7753 H   0  0  0  0  0  0  0  0  0  0  0  0
    4.6693    1.2197    0.9556 H   0  0  0  0  0  0  0  0  0  0  0  0
    5.8922    0.6016   -0.1655 H   0  0  0  0  0  0  0  0  0  0  0  0
    4.9359   -1.2628    1.0953 H   0  0  0  0  0  0  0  0  0  0  0  0
    4.5150   -1.4155   -0.6083 H   0  0  0  0  0  0  0  0  0  0  0  0
    2.6575   -0.1951    1.5160 H   0  0  0  0  0  0  0  0  0  0  0  0
    2.6580   -1.9049    1.0556 H   0  0  0  0  0  0  0  0  0  0  0  0
   -2.1863    2.6293    0.0599 H   0  0  0  0  0  0  0  0  0  0  0  0
   -5.5841    0.1401    0.7904 H   0  0  0  0  0  0  0  0  0  0  0  0
    1.0122    3.2632   -2.3048 H   0  0  0  0  0  0  0  0  0  0  0  0
    1.1496    1.5034   -2.4857 H   0  0  0  0  0  0  0  0  0  0  0  0
   -0.4587    2.2746   -2.4469 H   0  0  0  0  0  0  0  0  0  0  0  0
  1  2  1  0
  2  3  1  0
  3  4  1  0
  4  5  2  0
  4  6  1  0
  6  7  2  0
  7  8  1  0
  8  9  2  0
  9 10  1  0
 10 11  1  0
 10 12  2  0
 12 13  1  0
 13 14  2  0
 14 15  1  0
 15 16  1  0
 16 17  2  0
 13 18  1  0
 18 19  1  0
 18 20  1  0
 18 21  1  0
  7 22  1  0
 22 23  2  0
 22 24  1  0
 16  6  1  0
 14  8  1  0
  1 25  1  0
  1 26  1  0
  1 27  1  0
  2 28  1  0
  2 29  1  0
  3 30  1  0
  3 31  1  0
  9 32  1  0
 12 33  1  0
 24 34  1  0
 24 35  1  0
 24 36  1  0
M  END
>  <Unnamed: 0>  (12) 
51

>  <ID>  (12) 
TRAIN_0051

>  <Canonical_Smiles>  (12) 
CCCC(=O)C1=C(c2cc(Cl)cc(c2OC1=O)C(F)(F)F)S(=O)C

>  <Inhibition>  (12) 
21.3

>  <TDC_conf_true_inhibitor>  (12) 
0

>  <TDC_conf_non_inhibitor>  (12) 
1

>  <split>  (12) 
1

$$$$
12
     RDKit          3D

 30 31  0  0  0  0  0  0  0  0999 V2000
    5.8794   -0.2977    1.2033 C   0  0  0  0  0  0  0  0  0  0  0  0
    4.4290    0.1134    1.2324 C   0  0  0  0  0  0  0  0  0  0  0  0
    4.0117    0.9016    2.0740 O   0  0  0  0  0  0  0  0  0  0  0  0
    3.6888   -0.4609    0.2209 N   0  0  0  0  0  0  0  0  0  0  0  0
    2.3396   -0.3125   -0.0614 C   0  0  0  0  0  0  0  0  0  0  0  0
    1.4762    0.4326    0.6406 C   0  0  0  0  0  0  0  0  0  0  0  0
    0.0763    0.5131    0.2510 C   0  0  0  0  0  0  0  0  0  0  0  0
   -0.8437    1.2874    0.9659 C   0  0  0  0  0  0  0  0  0  0  0  0
   -2.1805    1.3377    0.5611 C   0  0  0  0  0  0  0  0  0  0  0  0
   -2.5883    0.5996   -0.5508 C   0  0  0  0  0  0  0  0  0  0  0  0
   -3.9143    0.6855   -0.9753 O   0  0  0  0  0  0  0  0  0  0  0  0
   -4.7251   -0.2923   -0.4110 C   0  0  0  0  0  0  0  0  0  0  0  0
   -4.3880   -1.1631    0.3797 O   0  0  0  0  0  0  0  0  0  0  0  0
   -6.1216   -0.1180   -0.9297 C   0  0  0  0  0  0  0  0  0  0  0  0
   -1.6854   -0.1616   -1.2866 C   0  0  0  0  0  0  0  0  0  0  0  0
   -0.3593   -0.1974   -0.8655 C   0  0  0  0  0  0  0  0  0  0  0  0
    0.5339   -0.9806   -1.6161 O   0  0  0  0  0  0  0  0  0  0  0  0
    1.8704   -1.0747   -1.2625 C   0  0  0  0  0  0  0  0  0  0  0  0
    2.6679   -1.7565   -1.9061 O   0  0  0  0  0  0  0  0  0  0  0  0
    6.2701   -0.3133    2.2249 H   0  0  0  0  0  0  0  0  0  0  0  0
    6.0009   -1.2989    0.7802 H   0  0  0  0  0  0  0  0  0  0  0  0
    6.4454    0.4215    0.6057 H   0  0  0  0  0  0  0  0  0  0  0  0
    4.1744   -1.0758   -0.4320 H   0  0  0  0  0  0  0  0  0  0  0  0
    1.7748    0.9969    1.5165 H   0  0  0  0  0  0  0  0  0  0  0  0
   -0.5312    1.8551    1.8396 H   0  0  0  0  0  0  0  0  0  0  0  0
   -2.8944    1.9414    1.1139 H   0  0  0  0  0  0  0  0  0  0  0  0
   -6.5034    0.8651   -0.6431 H   0  0  0  0  0  0  0  0  0  0  0  0
   -6.7684   -0.8841   -0.4925 H   0  0  0  0  0  0  0  0  0  0  0  0
   -6.1305   -0.2337   -2.0164 H   0  0  0  0  0  0  0  0  0  0  0  0
   -2.0049   -0.7184   -2.1607 H   0  0  0  0  0  0  0  0  0  0  0  0
  1  2  1  0
  2  3  2  0
  2  4  1  0
  4  5  1  0
  5  6  2  0
  6  7  1  0
  7  8  2  0
  8  9  1  0
  9 10  2  0
 10 11  1  0
 11 12  1  0
 12 13  2  0
 12 14  1  0
 10 15  1  0
 15 16  2  0
 16 17  1  0
 17 18  1  0
 18 19  2  0
 18  5  1  0
 16  7  1  0
  1 20  1  0
  1 21  1  0
  1 22  1  0
  4 23  1  0
  6 24  1  0
  8 25  1  0
  9 26  1  0
 14 27  1  0
 14 28  1  0
 14 29  1  0
 15 30  1  0
M  END
>  <Unnamed: 0>  (13) 
596

>  <ID>  (13) 
TRAIN_0596

>  <Canonical_Smiles>  (13) 
CC(=O)NC1=Cc2ccc(OC(=O)C)cc2OC1=O

>  <Inhibition>  (13) 
2.51

>  <TDC_conf_true_inhibitor>  (13) 
0

>  <TDC_conf_non_inhibitor>  (13) 
1

>  <split>  (13) 
1

$$$$
13
     RDKit          3D

 48 49  0  0  0  0  0  0  0  0999 V2000
   -6.2168   -0.1668   -0.7508 C   0  0  0  0  0  0  0  0  0  0  0  0
   -5.6760    0.3360    0.5930 C   0  0  0  0  0  0  0  0  0  0  0  0
   -6.5369   -0.2564    1.7193 C   0  0  0  0  0  0  0  0  0  0  0  0
   -5.7214    1.8647    0.6948 C   0  0  0  0  0  0  0  0  0  0  0  0
   -4.3378   -0.1634    0.8504 O   0  0  0  0  0  0  0  0  0  0  0  0
   -3.3125    0.1583    0.0310 C   0  0  0  0  0  0  0  0  0  0  0  0
   -3.3800    0.8403   -0.9776 O   0  0  0  0  0  0  0  0  0  0  0  0
   -2.1728   -0.4036    0.5206 N   0  0  0  0  0  0  0  0  0  0  0  0
   -0.8559   -0.0532    0.0238 C   0  0  0  0  0  0  0  0  0  0  0  0
   -0.6569   -0.3640   -1.4684 C   0  0  0  0  0  0  0  0  0  0  0  0
    0.7344   -0.5526   -1.8565 N   0  0  0  0  0  0  0  0  0  0  0  0
    1.6614    0.4626   -1.7150 C   0  0  0  0  0  0  0  0  0  0  0  0
    1.4176    1.5186   -1.1416 O   0  0  0  0  0  0  0  0  0  0  0  0
    3.0174    0.1515   -2.3450 C   0  0  0  0  0  0  0  0  0  0  0  0
    4.1567    0.5570   -1.4449 C   0  0  0  0  0  0  0  0  0  0  0  0
    4.8775    1.6599   -1.7048 C   0  0  0  0  0  0  0  0  0  0  0  0
    6.0108    2.1108   -0.8836 C   0  0  0  0  0  0  0  0  0  0  0  0
    6.6408    3.1186   -1.1857 O   0  0  0  0  0  0  0  0  0  0  0  0
    6.3288    1.3365    0.2168 O   0  0  0  0  0  0  0  0  0  0  0  0
    5.5976    0.1719    0.5229 C   0  0  0  0  0  0  0  0  0  0  0  0
    6.0120   -0.5322    1.6541 C   0  0  0  0  0  0  0  0  0  0  0  0
    5.3356   -1.6895    2.0085 C   0  0  0  0  0  0  0  0  0  0  0  0
    5.7583   -2.3629    3.1157 O   0  0  0  0  0  0  0  0  0  0  0  0
    4.2604   -2.1410    1.2504 C   0  0  0  0  0  0  0  0  0  0  0  0
    3.8575   -1.4221    0.1160 C   0  0  0  0  0  0  0  0  0  0  0  0
    4.5233   -0.2486   -0.2683 C   0  0  0  0  0  0  0  0  0  0  0  0
   -5.6901    0.2814   -1.5981 H   0  0  0  0  0  0  0  0  0  0  0  0
   -6.0901   -1.2519   -0.8399 H   0  0  0  0  0  0  0  0  0  0  0  0
   -7.2799    0.0713   -0.8656 H   0  0  0  0  0  0  0  0  0  0  0  0
   -6.1587    0.0503    2.7017 H   0  0  0  0  0  0  0  0  0  0  0  0
   -6.5000   -1.3520    1.7028 H   0  0  0  0  0  0  0  0  0  0  0  0
   -7.5831    0.0562    1.6391 H   0  0  0  0  0  0  0  0  0  0  0  0
   -5.1717    2.3456   -0.1204 H   0  0  0  0  0  0  0  0  0  0  0  0
   -6.7512    2.2370    0.6615 H   0  0  0  0  0  0  0  0  0  0  0  0
   -5.2578    2.2047    1.6285 H   0  0  0  0  0  0  0  0  0  0  0  0
   -2.2649   -0.7729    1.4571 H   0  0  0  0  0  0  0  0  0  0  0  0
   -0.6972    1.0117    0.2222 H   0  0  0  0  0  0  0  0  0  0  0  0
   -0.1386   -0.6197    0.6281 H   0  0  0  0  0  0  0  0  0  0  0  0
   -1.1743   -1.2937   -1.7318 H   0  0  0  0  0  0  0  0  0  0  0  0
   -1.0706    0.4376   -2.0899 H   0  0  0  0  0  0  0  0  0  0  0  0
    0.9073   -1.2450   -2.5743 H   0  0  0  0  0  0  0  0  0  0  0  0
    3.0514    0.6992   -3.2951 H   0  0  0  0  0  0  0  0  0  0  0  0
    3.0973   -0.9087   -2.6081 H   0  0  0  0  0  0  0  0  0  0  0  0
    4.6587    2.3021   -2.5507 H   0  0  0  0  0  0  0  0  0  0  0  0
    6.8508   -0.1811    2.2480 H   0  0  0  0  0  0  0  0  0  0  0  0
    5.2037   -3.1511    3.2388 H   0  0  0  0  0  0  0  0  0  0  0  0
    3.7235   -3.0451    1.5229 H   0  0  0  0  0  0  0  0  0  0  0  0
    3.0122   -1.8067   -0.4479 H   0  0  0  0  0  0  0  0  0  0  0  0
  1  2  1  0
  2  3  1  0
  2  4  1  0
  2  5  1  0
  5  6  1  0
  6  7  2  0
  6  8  1  0
  8  9  1  0
  9 10  1  0
 10 11  1  0
 11 12  1  0
 12 13  2  0
 12 14  1  0
 14 15  1  0
 15 16  2  0
 16 17  1  0
 17 18  2  0
 17 19  1  0
 19 20  1  0
 20 21  2  0
 21 22  1  0
 22 23  1  0
 22 24  2  0
 24 25  1  0
 25 26  2  0
 26 15  1  0
 26 20  1  0
  1 27  1  0
  1 28  1  0
  1 29  1  0
  3 30  1  0
  3 31  1  0
  3 32  1  0
  4 33  1  0
  4 34  1  0
  4 35  1  0
  8 36  1  0
  9 37  1  0
  9 38  1  0
 10 39  1  0
 10 40  1  0
 11 41  1  0
 14 42  1  0
 14 43  1  0
 16 44  1  0
 21 45  1  0
 23 46  1  0
 24 47  1  0
 25 48  1  0
M  END
>  <Unnamed: 0>  (14) 
668

>  <ID>  (14) 
TRAIN_0668

>  <Canonical_Smiles>  (14) 
CC(C)(C)OC(=O)NCCNC(=O)CC1=CC(=O)Oc2cc(O)ccc12

>  <Inhibition>  (14) 
1.93

>  <TDC_conf_true_inhibitor>  (14) 
0

>  <TDC_conf_non_inhibitor>  (14) 
1

>  <split>  (14) 
1

$$$$
14
     RDKit          3D

 52 53  0  0  0  0  0  0  0  0999 V2000
    0.5300   -0.5433   -2.4859 C   0  0  0  0  0  0  0  0  0  0  0  0
    0.8059   -0.2229   -1.0428 C   0  0  0  0  0  0  0  0  0  0  0  0
   -0.0782   -0.0783   -0.0926 N   0  0  0  0  0  0  0  0  0  0  0  0
   -1.3943   -0.2169   -0.4698 N   0  0  0  0  0  0  0  0  0  0  0  0
   -2.2878    0.7942    0.1508 C   0  0  0  0  0  0  0  0  0  0  0  0
   -1.9527    2.1705   -0.3561 C   0  0  0  0  0  0  0  0  0  0  0  0
   -1.1092    3.0214    0.3579 C   0  0  0  0  0  0  0  0  0  0  0  0
   -0.6046    2.6340    1.5386 F   0  0  0  0  0  0  0  0  0  0  0  0
   -0.7711    4.2842   -0.1277 C   0  0  0  0  0  0  0  0  0  0  0  0
   -1.2773    4.7149   -1.3536 C   0  0  0  0  0  0  0  0  0  0  0  0
   -2.1182    3.8758   -2.0832 C   0  0  0  0  0  0  0  0  0  0  0  0
   -2.4450    2.6162   -1.5825 C   0  0  0  0  0  0  0  0  0  0  0  0
   -3.2590    1.8300   -2.3017 F   0  0  0  0  0  0  0  0  0  0  0  0
   -1.9496   -1.5252   -0.3129 C   0  0  0  0  0  0  0  0  0  0  0  0
   -1.3607   -2.4986    0.5068 C   0  0  0  0  0  0  0  0  0  0  0  0
   -1.9195   -3.7754    0.6252 C   0  0  0  0  0  0  0  0  0  0  0  0
   -3.0703   -4.1161   -0.0924 C   0  0  0  0  0  0  0  0  0  0  0  0
   -3.6850   -5.4758    0.0573 C   0  0  0  0  0  0  0  0  0  0  0  0
   -3.6656   -3.1534   -0.9130 C   0  0  0  0  0  0  0  0  0  0  0  0
   -3.1056   -1.8773   -1.0279 C   0  0  0  0  0  0  0  0  0  0  0  0
    2.2745   -0.0788   -0.6432 C   0  0  0  0  0  0  0  0  0  0  0  0
    3.1546   -0.5146   -1.3663 O   0  0  0  0  0  0  0  0  0  0  0  0
    2.4407    0.5682    0.5611 N   0  0  0  0  0  0  0  0  0  0  0  0
    3.7153    0.7741    1.2512 C   0  0  0  0  0  0  0  0  0  0  0  0
    4.6840    1.5944    0.3845 C   0  0  0  0  0  0  0  0  0  0  0  0
    3.4365    1.5613    2.5440 C   0  0  0  0  0  0  0  0  0  0  0  0
    4.3541   -0.5725    1.6225 C   0  0  0  0  0  0  0  0  0  0  0  0
    1.2877   -0.0836   -3.1263 H   0  0  0  0  0  0  0  0  0  0  0  0
   -0.4441   -0.1624   -2.8017 H   0  0  0  0  0  0  0  0  0  0  0  0
    0.5563   -1.6277   -2.6219 H   0  0  0  0  0  0  0  0  0  0  0  0
   -3.3461    0.6047   -0.0719 H   0  0  0  0  0  0  0  0  0  0  0  0
   -2.1974    0.7563    1.2450 H   0  0  0  0  0  0  0  0  0  0  0  0
   -0.1107    4.9211    0.4531 H   0  0  0  0  0  0  0  0  0  0  0  0
   -1.0158    5.6973   -1.7388 H   0  0  0  0  0  0  0  0  0  0  0  0
   -2.5220    4.1918   -3.0403 H   0  0  0  0  0  0  0  0  0  0  0  0
   -0.4646   -2.2649    1.0754 H   0  0  0  0  0  0  0  0  0  0  0  0
   -1.4439   -4.5015    1.2805 H   0  0  0  0  0  0  0  0  0  0  0  0
   -4.3967   -5.4750    0.8886 H   0  0  0  0  0  0  0  0  0  0  0  0
   -2.9169   -6.2324    0.2490 H   0  0  0  0  0  0  0  0  0  0  0  0
   -4.2101   -5.7705   -0.8577 H   0  0  0  0  0  0  0  0  0  0  0  0
   -4.5636   -3.3914   -1.4782 H   0  0  0  0  0  0  0  0  0  0  0  0
   -3.5679   -1.1576   -1.6996 H   0  0  0  0  0  0  0  0  0  0  0  0
    1.5711    0.7522    1.0596 H   0  0  0  0  0  0  0  0  0  0  0  0
    4.2280    2.5418    0.0747 H   0  0  0  0  0  0  0  0  0  0  0  0
    4.9742    1.0588   -0.5250 H   0  0  0  0  0  0  0  0  0  0  0  0
    5.6041    1.8267    0.9326 H   0  0  0  0  0  0  0  0  0  0  0  0
    2.9705    2.5289    2.3237 H   0  0  0  0  0  0  0  0  0  0  0  0
    2.7507    1.0130    3.2009 H   0  0  0  0  0  0  0  0  0  0  0  0
    4.3588    1.7510    3.1046 H   0  0  0  0  0  0  0  0  0  0  0  0
    5.2711   -0.4287    2.2049 H   0  0  0  0  0  0  0  0  0  0  0  0
    3.6674   -1.1827    2.2207 H   0  0  0  0  0  0  0  0  0  0  0  0
    4.6178   -1.1556    0.7338 H   0  0  0  0  0  0  0  0  0  0  0  0
  1  2  1  0
  2  3  2  0
  3  4  1  0
  4  5  1  0
  5  6  1  0
  6  7  2  0
  7  8  1  0
  7  9  1  0
  9 10  2  0
 10 11  1  0
 11 12  2  0
 12 13  1  0
  4 14  1  0
 14 15  2  0
 15 16  1  0
 16 17  2  0
 17 18  1  0
 17 19  1  0
 19 20  2  0
  2 21  1  0
 21 22  2  0
 21 23  1  0
 23 24  1  0
 24 25  1  0
 24 26  1  0
 24 27  1  0
 12  6  1  0
 20 14  1  0
  1 28  1  0
  1 29  1  0
  1 30  1  0
  5 31  1  0
  5 32  1  0
  9 33  1  0
 10 34  1  0
 11 35  1  0
 15 36  1  0
 16 37  1  0
 18 38  1  0
 18 39  1  0
 18 40  1  0
 19 41  1  0
 20 42  1  0
 23 43  1  0
 25 44  1  0
 25 45  1  0
 25 46  1  0
 26 47  1  0
 26 48  1  0
 26 49  1  0
 27 50  1  0
 27 51  1  0
 27 52  1  0
M  END
>  <Unnamed: 0>  (15) 
53

>  <ID>  (15) 
TRAIN_0053

>  <Canonical_Smiles>  (15) 
C\C(=N/N(Cc1c(F)cccc1F)c2ccc(C)cc2)\C(=O)NC(C)(C)C

>  <Inhibition>  (15) 
45.7

>  <TDC_conf_true_inhibitor>  (15) 
1

>  <TDC_conf_non_inhibitor>  (15) 
0

>  <split>  (15) 
1

$$$$
15
     RDKit          3D

 35 36  0  0  0  0  0  0  0  0999 V2000
   -4.5164    2.8315    0.1041 C   0  0  0  0  0  0  0  0  0  0  0  0
   -3.1077    2.6428    0.0510 O   0  0  0  0  0  0  0  0  0  0  0  0
   -2.6560    1.3506    0.0858 C   0  0  0  0  0  0  0  0  0  0  0  0
   -1.2650    1.2162   -0.0007 C   0  0  0  0  0  0  0  0  0  0  0  0
   -0.6454   -0.0376    0.0475 C   0  0  0  0  0  0  0  0  0  0  0  0
    0.7367   -0.2322   -0.1013 N   0  0  0  0  0  0  0  0  0  0  0  0
    1.6465    0.8736    0.1869 C   0  0  0  0  0  0  0  0  0  0  0  0
    3.0763    0.4173    0.0468 C   0  0  0  0  0  0  0  0  0  0  0  0
    3.8310    0.8474   -1.0508 C   0  0  0  0  0  0  0  0  0  0  0  0
    3.2865    1.6698   -1.9592 F   0  0  0  0  0  0  0  0  0  0  0  0
    5.1561    0.4554   -1.2329 C   0  0  0  0  0  0  0  0  0  0  0  0
    5.7610   -0.3876   -0.3067 C   0  0  0  0  0  0  0  0  0  0  0  0
    5.0326   -0.8314    0.7961 C   0  0  0  0  0  0  0  0  0  0  0  0
    3.7011   -0.4328    0.9714 C   0  0  0  0  0  0  0  0  0  0  0  0
    2.8664   -1.0345    2.3607 Cl  0  0  0  0  0  0  0  0  0  0  0  0
   -1.4709   -1.1725    0.1102 C   0  0  0  0  0  0  0  0  0  0  0  0
   -2.8610   -1.0566    0.1963 C   0  0  0  0  0  0  0  0  0  0  0  0
   -3.7507   -2.0943    0.2828 O   0  0  0  0  0  0  0  0  0  0  0  0
   -3.2103   -3.4095    0.2616 C   0  0  0  0  0  0  0  0  0  0  0  0
   -3.4479    0.2104    0.1931 C   0  0  0  0  0  0  0  0  0  0  0  0
   -4.7113    3.9071    0.0542 H   0  0  0  0  0  0  0  0  0  0  0  0
   -4.9284    2.4624    1.0492 H   0  0  0  0  0  0  0  0  0  0  0  0
   -5.0107    2.3637   -0.7537 H   0  0  0  0  0  0  0  0  0  0  0  0
   -0.6813    2.1250   -0.1086 H   0  0  0  0  0  0  0  0  0  0  0  0
    1.0291   -1.0929    0.3574 H   0  0  0  0  0  0  0  0  0  0  0  0
    1.4869    1.2615    1.2010 H   0  0  0  0  0  0  0  0  0  0  0  0
    1.4609    1.7052   -0.5026 H   0  0  0  0  0  0  0  0  0  0  0  0
    5.7047    0.8134   -2.0992 H   0  0  0  0  0  0  0  0  0  0  0  0
    6.7938   -0.6987   -0.4421 H   0  0  0  0  0  0  0  0  0  0  0  0
    5.5075   -1.4918    1.5186 H   0  0  0  0  0  0  0  0  0  0  0  0
   -0.9983   -2.1487    0.0889 H   0  0  0  0  0  0  0  0  0  0  0  0
   -2.5567   -3.5816    1.1231 H   0  0  0  0  0  0  0  0  0  0  0  0
   -4.0444   -4.1144    0.3312 H   0  0  0  0  0  0  0  0  0  0  0  0
   -2.6864   -3.6062   -0.6797 H   0  0  0  0  0  0  0  0  0  0  0  0
   -4.5286    0.2701    0.2627 H   0  0  0  0  0  0  0  0  0  0  0  0
  1  2  1  0
  2  3  1  0
  3  4  2  0
  4  5  1  0
  5  6  1  0
  6  7  1  0
  7  8  1  0
  8  9  2  0
  9 10  1  0
  9 11  1  0
 11 12  2  0
 12 13  1  0
 13 14  2  0
 14 15  1  0
  5 16  2  0
 16 17  1  0
 17 18  1  0
 18 19  1  0
 17 20  2  0
 20  3  1  0
 14  8  1  0
  1 21  1  0
  1 22  1  0
  1 23  1  0
  4 24  1  0
  6 25  1  0
  7 26  1  0
  7 27  1  0
 11 28  1  0
 12 29  1  0
 13 30  1  0
 16 31  1  0
 19 32  1  0
 19 33  1  0
 19 34  1  0
 20 35  1  0
M  END
>  <Unnamed: 0>  (16) 
84

>  <ID>  (16) 
TRAIN_0084

>  <Canonical_Smiles>  (16) 
COc1cc(NCc2c(F)cccc2Cl)cc(OC)c1

>  <Inhibition>  (16) 
62.9

>  <TDC_conf_true_inhibitor>  (16) 
1

>  <TDC_conf_non_inhibitor>  (16) 
0

>  <split>  (16) 
1

$$$$
16
     RDKit          3D

 70 74  0  0  0  0  0  0  0  0999 V2000
    0.7954   -0.7054   -1.7022 C   0  0  0  0  0  0  0  0  0  0  0  0
    1.3982   -0.7532   -0.3729 N   0  0  0  0  0  0  0  0  0  0  0  0
    0.5593   -1.1782    0.7682 C   0  0  0  0  0  0  0  0  0  0  0  0
    0.7047   -2.6935    1.1538 C   0  0  0  0  0  0  0  0  0  0  0  0
    0.4858   -3.7077    0.0976 N   0  0  0  0  0  0  0  0  0  0  0  0
    0.1548   -5.0139    0.6859 C   0  0  0  0  0  0  0  0  0  0  0  0
    0.4599   -6.0202   -0.4156 C   0  0  0  0  0  0  0  0  0  0  0  0
    1.3086   -5.2558   -1.4224 C   0  0  0  0  0  0  0  0  0  0  0  0
    1.6876   -3.9738   -0.7020 C   0  0  0  0  0  0  0  0  0  0  0  0
   -0.8705   -0.6449    0.6677 C   0  0  0  0  0  0  0  0  0  0  0  0
   -1.9456   -1.4195    0.2158 C   0  0  0  0  0  0  0  0  0  0  0  0
   -3.2229   -0.8623    0.0816 C   0  0  0  0  0  0  0  0  0  0  0  0
   -3.4676    0.4843    0.3922 C   0  0  0  0  0  0  0  0  0  0  0  0
   -2.3908    1.2556    0.8518 C   0  0  0  0  0  0  0  0  0  0  0  0
   -1.1131    0.7024    0.9842 C   0  0  0  0  0  0  0  0  0  0  0  0
   -4.8070    1.0716    0.2221 C   0  0  0  0  0  0  0  0  0  0  0  0
   -5.9420    0.4722    0.7925 C   0  0  0  0  0  0  0  0  0  0  0  0
   -7.2150    1.0212    0.6160 C   0  0  0  0  0  0  0  0  0  0  0  0
   -7.3774    2.1877   -0.1303 C   0  0  0  0  0  0  0  0  0  0  0  0
   -6.2614    2.8137   -0.6949 C   0  0  0  0  0  0  0  0  0  0  0  0
   -4.9891    2.2472   -0.5259 C   0  0  0  0  0  0  0  0  0  0  0  0
   -6.3737    4.0601   -1.4995 C   0  0  0  0  0  0  0  0  0  0  0  0
   -5.4859    4.4179   -2.2641 O   0  0  0  0  0  0  0  0  0  0  0  0
   -7.4908    4.8295   -1.3250 N   0  0  0  0  0  0  0  0  0  0  0  0
    2.7476   -0.4952   -0.1239 C   0  0  0  0  0  0  0  0  0  0  0  0
    3.2666   -0.8211    0.9472 O   0  0  0  0  0  0  0  0  0  0  0  0
    3.5495    0.1976   -1.2497 C   0  0  0  0  0  0  0  0  0  0  0  0
    4.6174    1.0912   -0.7852 N   0  0  0  0  0  0  0  0  0  0  0  0
    5.8415    0.5169   -0.2000 C   0  0  0  0  0  0  0  0  0  0  0  0
    6.5333    1.6379    0.5983 C   0  0  0  0  0  0  0  0  0  0  0  0
    5.3740    2.5344    0.8726 C   0  0  0  0  0  0  0  0  0  0  0  0
    5.3042    3.6029    1.7530 C   0  0  0  0  0  0  0  0  0  0  0  0
    4.1139    4.3264    1.8129 C   0  0  0  0  0  0  0  0  0  0  0  0
    3.0303    3.9789    0.9933 C   0  0  0  0  0  0  0  0  0  0  0  0
    3.1240    2.9014    0.1029 C   0  0  0  0  0  0  0  0  0  0  0  0
    4.3019    2.1744    0.0488 C   0  0  0  0  0  0  0  0  0  0  0  0
    0.1015   -1.5380   -1.8304 H   0  0  0  0  0  0  0  0  0  0  0  0
    1.5521   -0.7928   -2.4846 H   0  0  0  0  0  0  0  0  0  0  0  0
    0.2663    0.2426   -1.8183 H   0  0  0  0  0  0  0  0  0  0  0  0
    0.9718   -0.6640    1.6508 H   0  0  0  0  0  0  0  0  0  0  0  0
    1.6936   -2.8521    1.6058 H   0  0  0  0  0  0  0  0  0  0  0  0
   -0.0150   -2.8720    1.9649 H   0  0  0  0  0  0  0  0  0  0  0  0
    0.7823   -5.2332    1.5602 H   0  0  0  0  0  0  0  0  0  0  0  0
   -0.8925   -5.0613    0.9990 H   0  0  0  0  0  0  0  0  0  0  0  0
   -0.4530   -6.4011   -0.8876 H   0  0  0  0  0  0  0  0  0  0  0  0
    1.0130   -6.8751   -0.0077 H   0  0  0  0  0  0  0  0  0  0  0  0
    2.1845   -5.8274   -1.7423 H   0  0  0  0  0  0  0  0  0  0  0  0
    0.7093   -5.0303   -2.3141 H   0  0  0  0  0  0  0  0  0  0  0  0
    1.9185   -3.1861   -1.4218 H   0  0  0  0  0  0  0  0  0  0  0  0
    2.5707   -4.1444   -0.0741 H   0  0  0  0  0  0  0  0  0  0  0  0
   -1.8030   -2.4599   -0.0663 H   0  0  0  0  0  0  0  0  0  0  0  0
   -4.0273   -1.4897   -0.2978 H   0  0  0  0  0  0  0  0  0  0  0  0
   -2.5363    2.3027    1.1111 H   0  0  0  0  0  0  0  0  0  0  0  0
   -0.2977    1.3369    1.3292 H   0  0  0  0  0  0  0  0  0  0  0  0
   -5.8387   -0.4337    1.3877 H   0  0  0  0  0  0  0  0  0  0  0  0
   -8.0805    0.5326    1.0570 H   0  0  0  0  0  0  0  0  0  0  0  0
   -8.3797    2.5758   -0.2812 H   0  0  0  0  0  0  0  0  0  0  0  0
   -4.1306    2.7271   -0.9958 H   0  0  0  0  0  0  0  0  0  0  0  0
   -8.0727    4.7436   -0.5051 H   0  0  0  0  0  0  0  0  0  0  0  0
   -7.4679    5.7350   -1.7783 H   0  0  0  0  0  0  0  0  0  0  0  0
    3.9841   -0.5910   -1.8752 H   0  0  0  0  0  0  0  0  0  0  0  0
    2.8821    0.7868   -1.8852 H   0  0  0  0  0  0  0  0  0  0  0  0
    5.6069   -0.3176    0.4733 H   0  0  0  0  0  0  0  0  0  0  0  0
    6.5029    0.1249   -0.9829 H   0  0  0  0  0  0  0  0  0  0  0  0
    7.0004    1.2514    1.5076 H   0  0  0  0  0  0  0  0  0  0  0  0
    7.2751    2.1606   -0.0139 H   0  0  0  0  0  0  0  0  0  0  0  0
    6.1506    3.8724    2.3766 H   0  0  0  0  0  0  0  0  0  0  0  0
    4.0289    5.1726    2.4914 H   0  0  0  0  0  0  0  0  0  0  0  0
    2.1119    4.5610    1.0402 H   0  0  0  0  0  0  0  0  0  0  0  0
    2.2831    2.6632   -0.5372 H   0  0  0  0  0  0  0  0  0  0  0  0
  1  2  1  0
  2  3  1  0
  3  4  1  0
  4  5  1  0
  5  6  1  0
  6  7  1  0
  7  8  1  0
  8  9  1  0
  3 10  1  0
 10 11  2  0
 11 12  1  0
 12 13  2  0
 13 14  1  0
 14 15  2  0
 13 16  1  0
 16 17  2  0
 17 18  1  0
 18 19  2  0
 19 20  1  0
 20 21  2  0
 20 22  1  0
 22 23  2  0
 22 24  1  0
  2 25  1  0
 25 26  2  0
 25 27  1  0
 27 28  1  0
 28 29  1  0
 29 30  1  0
 30 31  1  0
 31 32  2  0
 32 33  1  0
 33 34  2  0
 34 35  1  0
 35 36  2  0
  9  5  1  0
 15 10  1  0
 21 16  1  0
 36 28  1  0
 36 31  1  0
  1 37  1  0
  1 38  1  0
  1 39  1  0
  3 40  1  0
  4 41  1  0
  4 42  1  0
  6 43  1  0
  6 44  1  0
  7 45  1  0
  7 46  1  0
  8 47  1  0
  8 48  1  0
  9 49  1  0
  9 50  1  0
 11 51  1  0
 12 52  1  0
 14 53  1  0
 15 54  1  0
 17 55  1  0
 18 56  1  0
 19 57  1  0
 21 58  1  0
 24 59  1  0
 24 60  1  0
 27 61  1  0
 27 62  1  0
 29 63  1  0
 29 64  1  0
 30 65  1  0
 30 66  1  0
 32 67  1  0
 33 68  1  0
 34 69  1  0
 35 70  1  0
M  END
>  <Unnamed: 0>  (17) 
58

>  <ID>  (17) 
TRAIN_0058

>  <Canonical_Smiles>  (17) 
CN(C(CN1CCCC1)c2ccc(cc2)c3cccc(c3)C(=O)N)C(=O)CN4CCc5ccccc45

>  <Inhibition>  (17) 
45.9

>  <TDC_conf_true_inhibitor>  (17) 
0

>  <TDC_conf_non_inhibitor>  (17) 
1

>  <split>  (17) 
1

$$$$
17
     RDKit          3D

 58 62  0  0  0  0  0  0  0  0999 V2000
    3.2973    2.3063    1.2011 O   0  0  0  0  0  0  0  0  0  0  0  0
    3.1986    1.0919    1.0870 C   0  0  0  0  0  0  0  0  0  0  0  0
    2.0785    0.3895    1.4864 N   0  0  0  0  0  0  0  0  0  0  0  0
    0.8944    1.1120    1.9272 C   0  0  0  0  0  0  0  0  0  0  0  0
    0.0376    1.5629    0.7287 C   0  0  0  0  0  0  0  0  0  0  0  0
   -0.3026    0.4336   -0.1616 N   0  0  0  0  0  0  0  0  0  0  0  0
   -0.8102    0.9138   -1.4532 C   0  0  0  0  0  0  0  0  0  0  0  0
   -1.9137   -0.0604   -1.8337 C   0  0  0  0  0  0  0  0  0  0  0  0
   -2.6226   -0.3765   -0.4938 C   0  0  0  0  0  0  0  0  0  0  0  0
   -1.3402   -0.4631    0.3996 C   0  0  0  0  0  0  0  0  0  0  0  0
   -3.5682    0.7338    0.0326 C   0  0  0  0  0  0  0  0  0  0  0  0
   -4.0469    0.6726    1.3582 C   0  0  0  0  0  0  0  0  0  0  0  0
   -4.9079    1.6462    1.8709 C   0  0  0  0  0  0  0  0  0  0  0  0
   -5.3232    2.7006    1.0666 C   0  0  0  0  0  0  0  0  0  0  0  0
   -4.8855    2.7733   -0.2513 C   0  0  0  0  0  0  0  0  0  0  0  0
   -4.0244    1.7975   -0.7650 C   0  0  0  0  0  0  0  0  0  0  0  0
   -3.4128   -1.6946   -0.6079 C   0  0  0  0  0  0  0  0  0  0  0  0
   -3.3326   -2.7061    0.3656 C   0  0  0  0  0  0  0  0  0  0  0  0
   -4.0757   -3.8841    0.2450 C   0  0  0  0  0  0  0  0  0  0  0  0
   -4.9237   -4.0692   -0.8426 C   0  0  0  0  0  0  0  0  0  0  0  0
   -5.0372   -3.0729   -1.8066 C   0  0  0  0  0  0  0  0  0  0  0  0
   -4.2947   -1.8957   -1.6874 C   0  0  0  0  0  0  0  0  0  0  0  0
    4.1501    0.2354    0.5838 N   0  0  0  0  0  0  0  0  0  0  0  0
    5.4053    0.5637    0.0318 C   0  0  0  0  0  0  0  0  0  0  0  0
    5.8419    1.8663   -0.1940 C   0  0  0  0  0  0  0  0  0  0  0  0
    7.0931    2.0718   -0.7471 C   0  0  0  0  0  0  0  0  0  0  0  0
    7.9582    1.1051   -1.1045 N   0  0  0  0  0  0  0  0  0  0  0  0
    7.5339   -0.1681   -0.8898 C   0  0  0  0  0  0  0  0  0  0  0  0
    8.2899   -1.3372   -1.1966 C   0  0  0  0  0  0  0  0  0  0  0  0
    7.6216   -2.4964   -0.8783 C   0  0  0  0  0  0  0  0  0  0  0  0
    6.0821   -2.1830   -0.2094 S   0  0  0  0  0  0  0  0  0  0  0  0
    6.2892   -0.4724   -0.3359 C   0  0  0  0  0  0  0  0  0  0  0  0
    1.8492   -0.3895    0.8834 H   0  0  0  0  0  0  0  0  0  0  0  0
    1.1931    1.9817    2.5225 H   0  0  0  0  0  0  0  0  0  0  0  0
    0.3341    0.4347    2.5790 H   0  0  0  0  0  0  0  0  0  0  0  0
    0.6242    2.2955    0.1591 H   0  0  0  0  0  0  0  0  0  0  0  0
   -0.8632    2.0777    1.0845 H   0  0  0  0  0  0  0  0  0  0  0  0
   -0.0125    0.9241   -2.2027 H   0  0  0  0  0  0  0  0  0  0  0  0
   -1.2171    1.9299   -1.3859 H   0  0  0  0  0  0  0  0  0  0  0  0
   -2.5607    0.3395   -2.6193 H   0  0  0  0  0  0  0  0  0  0  0  0
   -1.4547   -0.9717   -2.2455 H   0  0  0  0  0  0  0  0  0  0  0  0
   -0.9045   -1.4688    0.3347 H   0  0  0  0  0  0  0  0  0  0  0  0
   -1.5335   -0.2877    1.4626 H   0  0  0  0  0  0  0  0  0  0  0  0
   -3.7644   -0.1507    2.0107 H   0  0  0  0  0  0  0  0  0  0  0  0
   -5.2602    1.5732    2.8965 H   0  0  0  0  0  0  0  0  0  0  0  0
   -5.9953    3.4574    1.4616 H   0  0  0  0  0  0  0  0  0  0  0  0
   -5.2189    3.5894   -0.8878 H   0  0  0  0  0  0  0  0  0  0  0  0
   -3.7281    1.8988   -1.8042 H   0  0  0  0  0  0  0  0  0  0  0  0
   -2.6999   -2.5957    1.2422 H   0  0  0  0  0  0  0  0  0  0  0  0
   -3.9963   -4.6555    1.0067 H   0  0  0  0  0  0  0  0  0  0  0  0
   -5.5033   -4.9838   -0.9332 H   0  0  0  0  0  0  0  0  0  0  0  0
   -5.7100   -3.2062   -2.6497 H   0  0  0  0  0  0  0  0  0  0  0  0
   -4.4233   -1.1268   -2.4459 H   0  0  0  0  0  0  0  0  0  0  0  0
    3.9701   -0.7494    0.7216 H   0  0  0  0  0  0  0  0  0  0  0  0
    5.2335    2.7300    0.0470 H   0  0  0  0  0  0  0  0  0  0  0  0
    7.4467    3.0848   -0.9262 H   0  0  0  0  0  0  0  0  0  0  0  0
    9.2802   -1.3138   -1.6319 H   0  0  0  0  0  0  0  0  0  0  0  0
    7.9648   -3.5139   -1.0070 H   0  0  0  0  0  0  0  0  0  0  0  0
  1  2  2  0
  2  3  1  0
  3  4  1  0
  4  5  1  0
  5  6  1  0
  6  7  1  0
  7  8  1  0
  8  9  1  0
  9 10  1  0
  9 11  1  0
 11 12  2  0
 12 13  1  0
 13 14  2  0
 14 15  1  0
 15 16  2  0
  9 17  1  0
 17 18  2  0
 18 19  1  0
 19 20  2  0
 20 21  1  0
 21 22  2  0
  2 23  1  0
 23 24  1  0
 24 25  2  0
 25 26  1  0
 26 27  2  0
 27 28  1  0
 28 29  1  0
 29 30  2  0
 30 31  1  0
 31 32  1  0
 10  6  1  0
 16 11  1  0
 22 17  1  0
 32 24  1  0
 32 28  2  0
  3 33  1  0
  4 34  1  0
  4 35  1  0
  5 36  1  0
  5 37  1  0
  7 38  1  0
  7 39  1  0
  8 40  1  0
  8 41  1  0
 10 42  1  0
 10 43  1  0
 12 44  1  0
 13 45  1  0
 14 46  1  0
 15 47  1  0
 16 48  1  0
 18 49  1  0
 19 50  1  0
 20 51  1  0
 21 52  1  0
 22 53  1  0
 23 54  1  0
 25 55  1  0
 26 56  1  0
 29 57  1  0
 30 58  1  0
M  END
>  <Unnamed: 0>  (18) 
74

>  <ID>  (18) 
TRAIN_0074

>  <Canonical_Smiles>  (18) 
O=C(NCCN1CCC(C1)(c2ccccc2)c3ccccc3)Nc4ccnc5ccsc45

>  <Inhibition>  (18) 
88.1

>  <TDC_conf_true_inhibitor>  (18) 
1

>  <TDC_conf_non_inhibitor>  (18) 
0

>  <split>  (18) 
1

$$$$
18
     RDKit          3D

 49 51  0  0  0  0  0  0  0  0999 V2000
   -1.8488    1.7233   -1.8764 C   0  0  0  0  0  0  0  0  0  0  0  0
   -2.3042    0.5258   -1.1702 N   0  0  0  0  0  0  0  0  0  0  0  0
   -1.3603   -0.1336   -0.2346 C   0  0  0  0  0  0  0  0  0  0  0  0
   -0.8405    0.8011    0.8691 C   0  0  0  0  0  0  0  0  0  0  0  0
    0.3650    0.1822    1.5623 C   0  0  0  0  0  0  0  0  0  0  0  0
    1.4543   -0.0763    0.6299 N   0  0  0  0  0  0  0  0  0  0  0  0
    1.1318   -0.1814   -0.7908 C   0  0  0  0  0  0  0  0  0  0  0  0
   -0.2287   -0.8294   -1.0165 C   0  0  0  0  0  0  0  0  0  0  0  0
    2.7460   -0.1606    1.1234 C   0  0  0  0  0  0  0  0  0  0  0  0
    3.0161   -0.0995    2.3160 O   0  0  0  0  0  0  0  0  0  0  0  0
    3.6630   -0.3104    0.1339 O   0  0  0  0  0  0  0  0  0  0  0  0
    5.0782   -0.4158    0.4330 C   0  0  0  0  0  0  0  0  0  0  0  0
    5.7530   -0.5720   -0.9386 C   0  0  0  0  0  0  0  0  0  0  0  0
    5.6060    0.8623    1.0939 C   0  0  0  0  0  0  0  0  0  0  0  0
    5.3806   -1.6633    1.2704 C   0  0  0  0  0  0  0  0  0  0  0  0
   -3.5806    0.7049   -0.6031 C   0  0  0  0  0  0  0  0  0  0  0  0
   -3.9427    1.9318   -0.1389 N   0  0  0  0  0  0  0  0  0  0  0  0
   -5.1502    2.1238    0.4175 C   0  0  0  0  0  0  0  0  0  0  0  0
   -6.1055    1.1385    0.5585 C   0  0  0  0  0  0  0  0  0  0  0  0
   -5.7969   -0.1480    0.0742 C   0  0  0  0  0  0  0  0  0  0  0  0
   -6.5591   -1.3607    0.0538 C   0  0  0  0  0  0  0  0  0  0  0  0
   -8.3108   -1.4851    0.7631 Br  0  0  0  0  0  0  0  0  0  0  0  0
   -5.9155   -2.4203   -0.5274 C   0  0  0  0  0  0  0  0  0  0  0  0
   -4.3664   -1.9780   -1.0730 S   0  0  0  0  0  0  0  0  0  0  0  0
   -4.5348   -0.3433   -0.5053 C   0  0  0  0  0  0  0  0  0  0  0  0
   -1.6977    2.5828   -1.2144 H   0  0  0  0  0  0  0  0  0  0  0  0
   -2.5702    2.0081   -2.6520 H   0  0  0  0  0  0  0  0  0  0  0  0
   -0.9033    1.5264   -2.3914 H   0  0  0  0  0  0  0  0  0  0  0  0
   -1.8913   -0.9498    0.2749 H   0  0  0  0  0  0  0  0  0  0  0  0
   -0.5452    1.7752    0.4642 H   0  0  0  0  0  0  0  0  0  0  0  0
   -1.6321    0.9946    1.6024 H   0  0  0  0  0  0  0  0  0  0  0  0
    0.7160    0.8432    2.3628 H   0  0  0  0  0  0  0  0  0  0  0  0
    0.0958   -0.7756    2.0234 H   0  0  0  0  0  0  0  0  0  0  0  0
    1.8980   -0.7611   -1.3155 H   0  0  0  0  0  0  0  0  0  0  0  0
    1.1532    0.8335   -1.2036 H   0  0  0  0  0  0  0  0  0  0  0  0
   -0.1662   -1.8707   -0.6709 H   0  0  0  0  0  0  0  0  0  0  0  0
   -0.4473   -0.8821   -2.0895 H   0  0  0  0  0  0  0  0  0  0  0  0
    6.8407   -0.6630   -0.8495 H   0  0  0  0  0  0  0  0  0  0  0  0
    5.5290    0.2862   -1.5830 H   0  0  0  0  0  0  0  0  0  0  0  0
    5.3731   -1.4577   -1.4612 H   0  0  0  0  0  0  0  0  0  0  0  0
    5.3024    1.7480    0.5246 H   0  0  0  0  0  0  0  0  0  0  0  0
    6.6990    0.8516    1.1652 H   0  0  0  0  0  0  0  0  0  0  0  0
    5.2143    0.9914    2.1072 H   0  0  0  0  0  0  0  0  0  0  0  0
    4.9188   -2.5516    0.8251 H   0  0  0  0  0  0  0  0  0  0  0  0
    4.9848   -1.5802    2.2870 H   0  0  0  0  0  0  0  0  0  0  0  0
    6.4592   -1.8356    1.3531 H   0  0  0  0  0  0  0  0  0  0  0  0
   -5.3412    3.1357    0.7642 H   0  0  0  0  0  0  0  0  0  0  0  0
   -7.0611    1.3646    1.0183 H   0  0  0  0  0  0  0  0  0  0  0  0
   -6.2775   -3.4296   -0.6660 H   0  0  0  0  0  0  0  0  0  0  0  0
  1  2  1  0
  2  3  1  0
  3  4  1  0
  4  5  1  0
  5  6  1  0
  6  7  1  0
  7  8  1  0
  6  9  1  0
  9 10  2  0
  9 11  1  0
 11 12  1  0
 12 13  1  0
 12 14  1  0
 12 15  1  0
  2 16  1  0
 16 17  2  0
 17 18  1  0
 18 19  2  0
 19 20  1  0
 20 21  1  0
 21 22  1  0
 21 23  2  0
 23 24  1  0
 24 25  1  0
  8  3  1  0
 25 16  1  0
 25 20  2  0
  1 26  1  0
  1 27  1  0
  1 28  1  0
  3 29  1  0
  4 30  1  0
  4 31  1  0
  5 32  1  0
  5 33  1  0
  7 34  1  0
  7 35  1  0
  8 36  1  0
  8 37  1  0
 13 38  1  0
 13 39  1  0
 13 40  1  0
 14 41  1  0
 14 42  1  0
 14 43  1  0
 15 44  1  0
 15 45  1  0
 15 46  1  0
 18 47  1  0
 19 48  1  0
 23 49  1  0
M  END
>  <Unnamed: 0>  (19) 
75

>  <ID>  (19) 
TRAIN_0075

>  <Canonical_Smiles>  (19) 
CN(C1CCN(CC1)C(=O)OC(C)(C)C)c2nccc3c(Br)csc23

>  <Inhibition>  (19) 
40.1

>  <TDC_conf_true_inhibitor>  (19) 
0

>  <TDC_conf_non_inhibitor>  (19) 
1

>  <split>  (19) 
1

$$$$
19
     RDKit          3D

 32 33  0  0  0  0  0  0  0  0999 V2000
    0.0732   -2.5587    2.1217 O   0  0  0  0  0  1  0  0  0  0  0  0
    0.0914   -2.2274    0.9315 N   0  0  0  0  0  4  0  0  0  0  0  0
    0.9277   -2.5846    0.0927 O   0  0  0  0  0  0  0  0  0  0  0  0
   -0.9422   -1.3037    0.4889 C   0  0  0  0  0  0  0  0  0  0  0  0
   -0.5557   -0.0632   -0.0673 C   0  0  0  0  0  0  0  0  0  0  0  0
    0.8104    0.2485   -0.2770 N   0  0  0  0  0  0  0  0  0  0  0  0
    1.3673    1.4185   -0.7670 C   0  0  0  0  0  0  0  0  0  0  0  0
    0.7745    2.4393   -1.0900 O   0  0  0  0  0  0  0  0  0  0  0  0
    2.8527    1.3512   -0.8808 C   0  0  0  0  0  0  0  0  0  0  0  0
    3.5754    2.4242   -1.3784 C   0  0  0  0  0  0  0  0  0  0  0  0
    4.9274    2.3874   -1.4973 N   0  0  0  0  0  0  0  0  0  0  0  0
    5.5156    1.2352   -1.0968 C   0  0  0  0  0  0  0  0  0  0  0  0
    4.7907    0.1630   -0.5979 C   0  0  0  0  0  0  0  0  0  0  0  0
    3.4427    0.1882   -0.4760 N   0  0  0  0  0  0  0  0  0  0  0  0
   -1.5745    0.8361   -0.4077 C   0  0  0  0  0  0  0  0  0  0  0  0
   -2.9336    0.5234   -0.2173 C   0  0  0  0  0  0  0  0  0  0  0  0
   -3.2800   -0.7268    0.3160 C   0  0  0  0  0  0  0  0  0  0  0  0
   -2.2937   -1.6633    0.6704 C   0  0  0  0  0  0  0  0  0  0  0  0
   -2.7067   -3.0033    1.2302 C   0  0  0  0  0  0  0  0  0  0  0  0
   -2.6537   -3.0467    2.5853 F   0  0  0  0  0  0  0  0  0  0  0  0
   -1.9486   -4.0311    0.7673 F   0  0  0  0  0  0  0  0  0  0  0  0
   -3.9896   -3.3277    0.9015 F   0  0  0  0  0  0  0  0  0  0  0  0
   -3.9936    1.5324   -0.6081 C   0  0  0  0  0  0  0  0  0  0  0  0
   -3.8060    2.7418   -0.0155 F   0  0  0  0  0  0  0  0  0  0  0  0
   -5.2532    1.1410   -0.2689 F   0  0  0  0  0  0  0  0  0  0  0  0
   -4.0207    1.7615   -1.9484 F   0  0  0  0  0  0  0  0  0  0  0  0
    1.5109   -0.4778   -0.0963 H   0  0  0  0  0  0  0  0  0  0  0  0
    3.0952    3.3433   -1.6972 H   0  0  0  0  0  0  0  0  0  0  0  0
    6.5958    1.1975   -1.1861 H   0  0  0  0  0  0  0  0  0  0  0  0
    5.2811   -0.7520   -0.2825 H   0  0  0  0  0  0  0  0  0  0  0  0
   -1.3455    1.8092   -0.8387 H   0  0  0  0  0  0  0  0  0  0  0  0
   -4.3351   -0.9752    0.4546 H   0  0  0  0  0  0  0  0  0  0  0  0
  1  2  1  0
  2  3  2  0
  2  4  1  0
  4  5  2  0
  5  6  1  0
  6  7  1  0
  7  8  2  0
  7  9  1  0
  9 10  2  0
 10 11  1  0
 11 12  2  0
 12 13  1  0
 13 14  2  0
  5 15  1  0
 15 16  2  0
 16 17  1  0
 17 18  2  0
 18 19  1  0
 19 20  1  0
 19 21  1  0
 19 22  1  0
 16 23  1  0
 23 24  1  0
 23 25  1  0
 23 26  1  0
 18  4  1  0
 14  9  1  0
  6 27  1  0
 10 28  1  0
 12 29  1  0
 13 30  1  0
 15 31  1  0
 17 32  1  0
M  CHG  2   1  -1   2   1
M  END
>  <Unnamed: 0>  (20) 
85

>  <ID>  (20) 
TRAIN_0085

>  <Canonical_Smiles>  (20) 
[O-][N+](=O)c1c(NC(=O)c2cnccn2)cc(cc1C(F)(F)F)C(F)(F)F

>  <Inhibition>  (20) 
0.0

>  <TDC_conf_true_inhibitor>  (20) 
0

>  <TDC_conf_non_inhibitor>  (20) 
1

>  <split>  (20) 
1

$$$$
20
     RDKit          3D

 27 28  0  0  0  0  0  0  0  0999 V2000
    5.3734    0.9973    0.7728 C   0  0  0  0  0  0  0  0  0  0  0  0
    3.9057    0.9976    0.4803 C   0  0  0  0  0  0  0  0  0  0  0  0
    3.1521   -0.1658    0.6258 C   0  0  0  0  0  0  0  0  0  0  0  0
    1.8210   -0.2246    0.3754 N   0  0  0  0  0  0  0  0  0  0  0  0
    1.2670    0.9548   -0.0349 C   0  0  0  0  0  0  0  0  0  0  0  0
    2.0058    2.1170   -0.1830 C   0  0  0  0  0  0  0  0  0  0  0  0
    3.3387    2.1606    0.0716 N   0  0  0  0  0  0  0  0  0  0  0  0
   -0.1960    0.9460   -0.3242 C   0  0  0  0  0  0  0  0  0  0  0  0
   -0.7530    1.9706   -0.6958 O   0  0  0  0  0  0  0  0  0  0  0  0
   -0.7772   -0.2939   -0.1250 N   0  0  0  0  0  0  0  0  0  0  0  0
   -2.1224   -0.6628   -0.2996 C   0  0  0  0  0  0  0  0  0  0  0  0
   -3.1217    0.2135   -0.7217 C   0  0  0  0  0  0  0  0  0  0  0  0
   -4.4433   -0.2310   -0.8723 C   0  0  0  0  0  0  0  0  0  0  0  0
   -5.6119    0.9331   -1.4012 Cl  0  0  0  0  0  0  0  0  0  0  0  0
   -4.7844   -1.5628   -0.6017 C   0  0  0  0  0  0  0  0  0  0  0  0
   -6.4184   -2.1156   -0.7871 Cl  0  0  0  0  0  0  0  0  0  0  0  0
   -3.7784   -2.4401   -0.1779 C   0  0  0  0  0  0  0  0  0  0  0  0
   -4.0870   -4.1049    0.1844 Cl  0  0  0  0  0  0  0  0  0  0  0  0
   -2.4597   -1.9916   -0.0290 C   0  0  0  0  0  0  0  0  0  0  0  0
    5.8896    0.2884    0.1182 H   0  0  0  0  0  0  0  0  0  0  0  0
    5.5512    0.7188    1.8161 H   0  0  0  0  0  0  0  0  0  0  0  0
    5.8036    1.9902    0.6069 H   0  0  0  0  0  0  0  0  0  0  0  0
    3.6084   -1.0951    0.9532 H   0  0  0  0  0  0  0  0  0  0  0  0
    1.5541    3.0479   -0.5095 H   0  0  0  0  0  0  0  0  0  0  0  0
   -0.1206   -1.0087    0.1876 H   0  0  0  0  0  0  0  0  0  0  0  0
   -2.9001    1.2540   -0.9419 H   0  0  0  0  0  0  0  0  0  0  0  0
   -1.6964   -2.6930    0.3018 H   0  0  0  0  0  0  0  0  0  0  0  0
  1  2  1  0
  2  3  2  0
  3  4  1  0
  4  5  2  0
  5  6  1  0
  6  7  2  0
  5  8  1  0
  8  9  2  0
  8 10  1  0
 10 11  1  0
 11 12  2  0
 12 13  1  0
 13 14  1  0
 13 15  2  0
 15 16  1  0
 15 17  1  0
 17 18  1  0
 17 19  2  0
  7  2  1  0
 19 11  1  0
  1 20  1  0
  1 21  1  0
  1 22  1  0
  3 23  1  0
  6 24  1  0
 10 25  1  0
 12 26  1  0
 19 27  1  0
M  END
>  <Unnamed: 0>  (21) 
95

>  <ID>  (21) 
TRAIN_0095

>  <Canonical_Smiles>  (21) 
Cc1cnc(cn1)C(=O)Nc2cc(Cl)c(Cl)c(Cl)c2

>  <Inhibition>  (21) 
0.0

>  <TDC_conf_true_inhibitor>  (21) 
0

>  <TDC_conf_non_inhibitor>  (21) 
1

>  <split>  (21) 
1

$$$$
21
     RDKit          3D

 43 43  0  0  0  0  0  0  0  0999 V2000
    0.6828    0.0000    0.0000 Cl  0  0  0  0  0  0  0  0  0  0  0  0
   -0.4891    2.1420    2.9869 C   0  0  0  0  0  0  0  0  0  0  0  0
   -0.7430    2.1125    1.4834 C   0  0  0  0  0  0  0  0  0  0  0  0
   -0.1901    0.7966    0.9827 C   0  0  0  0  0  0  0  0  0  0  0  0
   -0.3162    0.5593   -0.3798 N   0  0  0  0  0  0  0  0  0  0  0  0
   -1.1319   -0.5211   -0.7567 C   0  0  0  0  0  0  0  0  0  0  0  0
   -1.2585   -1.6695    0.1758 C   0  0  0  0  0  0  0  0  0  0  0  0
   -2.6047   -1.6712    0.8168 C   0  0  0  0  0  0  0  0  0  0  0  0
   -3.5838   -1.9947   -0.2192 N   0  0  0  0  0  0  0  0  0  0  0  0
   -3.5399   -1.0532   -1.2928 C   0  0  0  0  0  0  0  0  0  0  0  0
   -2.5330    0.0379   -1.0231 C   0  0  0  0  0  0  0  0  0  0  0  0
    0.8877    1.0680   -1.4166 S   0  0  0  0  0  6  0  0  0  0  0  0
    0.5616    0.8546   -2.8796 O   0  0  0  0  0  0  0  0  0  0  0  0
    1.1201    2.5598   -1.2037 O   0  0  0  0  0  0  0  0  0  0  0  0
    2.4349    0.3182   -1.0938 C   0  0  0  0  0  0  0  0  0  0  0  0
    2.8180   -0.8590   -1.6987 C   0  0  0  0  0  0  0  0  0  0  0  0
    4.0563   -1.4459   -1.4300 C   0  0  0  0  0  0  0  0  0  0  0  0
    4.9042   -0.8344   -0.5456 C   0  0  0  0  0  0  0  0  0  0  0  0
    6.0972   -1.4337   -0.3102 F   0  0  0  0  0  0  0  0  0  0  0  0
    4.5582    0.3477    0.0829 C   0  0  0  0  0  0  0  0  0  0  0  0
    3.3243    0.8925   -0.2126 C   0  0  0  0  0  0  0  0  0  0  0  0
   -0.6828    0.0000    0.0000 H   0  0  0  0  0  0  0  0  0  0  0  0
   -0.5121    1.1111    3.3964 H   0  0  0  0  0  0  0  0  0  0  0  0
   -1.2862    2.7095    3.5231 H   0  0  0  0  0  0  0  0  0  0  0  0
    0.4897    2.5741    3.2370 H   0  0  0  0  0  0  0  0  0  0  0  0
   -0.3585    2.9866    0.9638 H   0  0  0  0  0  0  0  0  0  0  0  0
   -1.8469    2.1171    1.3701 H   0  0  0  0  0  0  0  0  0  0  0  0
   -0.6254    0.0082    1.6236 H   0  0  0  0  0  0  0  0  0  0  0  0
    0.9167    0.7462    1.2331 H   0  0  0  0  0  0  0  0  0  0  0  0
   -0.8235   -0.9109   -1.7928 H   0  0  0  0  0  0  0  0  0  0  0  0
   -0.4089   -1.8195    0.8735 H   0  0  0  0  0  0  0  0  0  0  0  0
   -1.2208   -2.6200   -0.4555 H   0  0  0  0  0  0  0  0  0  0  0  0
   -2.8504   -0.7204    1.3206 H   0  0  0  0  0  0  0  0  0  0  0  0
   -2.7155   -2.4940    1.5784 H   0  0  0  0  0  0  0  0  0  0  0  0
   -4.5374   -2.0217    0.1842 H   0  0  0  0  0  0  0  0  0  0  0  0
   -4.5224   -0.5388   -1.3945 H   0  0  0  0  0  0  0  0  0  0  0  0
   -3.3451   -1.5157   -2.2826 H   0  0  0  0  0  0  0  0  0  0  0  0
   -2.5219    0.6567   -1.9623 H   0  0  0  0  0  0  0  0  0  0  0  0
   -2.9158    0.6318   -0.1703 H   0  0  0  0  0  0  0  0  0  0  0  0
    2.1411   -1.3520   -2.4080 H   0  0  0  0  0  0  0  0  0  0  0  0
    4.2702   -2.3697   -1.9519 H   0  0  0  0  0  0  0  0  0  0  0  0
    5.2568    0.8071    0.7808 H   0  0  0  0  0  0  0  0  0  0  0  0
    3.0437    1.8078    0.2672 H   0  0  0  0  0  0  0  0  0  0  0  0
  2  3  1  0
  3  4  1  0
  4  5  1  0
  5  6  1  0
  6  7  1  0
  7  8  1  0
  8  9  1  0
  9 10  1  0
 10 11  1  0
  5 12  1  0
 12 13  2  0
 12 14  2  0
 12 15  1  0
 15 16  2  0
 16 17  1  0
 17 18  2  0
 18 19  1  0
 18 20  1  0
 20 21  2  0
 11  6  1  0
 21 15  1  0
  1 22  1  0
  2 23  1  0
  2 24  1  0
  2 25  1  0
  3 26  1  0
  3 27  1  0
  4 28  1  0
  4 29  1  0
  6 30  1  0
  7 31  1  0
  7 32  1  0
  8 33  1  0
  8 34  1  0
  9 35  1  0
 10 36  1  0
 10 37  1  0
 11 38  1  0
 11 39  1  0
 16 40  1  0
 17 41  1  0
 20 42  1  0
 21 43  1  0
M  END
>  <Unnamed: 0>  (22) 
92

>  <ID>  (22) 
TRAIN_0092

>  <Canonical_Smiles>  (22) 
Cl.CCCN(C1CCNCC1)S(=O)(=O)c2ccc(F)cc2

>  <Inhibition>  (22) 
17.2

>  <TDC_conf_true_inhibitor>  (22) 
0

>  <TDC_conf_non_inhibitor>  (22) 
1

>  <split>  (22) 
1

$$$$
22
     RDKit          3D

 50 51  0  0  0  0  0  0  0  0999 V2000
   -6.2832   -0.9359    0.5049 C   0  0  0  0  0  0  0  0  0  0  0  0
   -5.3872    0.2607    0.8438 C   0  0  0  0  0  0  0  0  0  0  0  0
   -5.8506    1.5433    0.1435 C   0  0  0  0  0  0  0  0  0  0  0  0
   -5.4307    0.4899    2.3627 C   0  0  0  0  0  0  0  0  0  0  0  0
   -3.9944   -0.0244    0.5569 O   0  0  0  0  0  0  0  0  0  0  0  0
   -3.5754   -0.2798   -0.7088 C   0  0  0  0  0  0  0  0  0  0  0  0
   -4.3101   -0.2975   -1.6884 O   0  0  0  0  0  0  0  0  0  0  0  0
   -2.2058   -0.5217   -0.7729 N   0  0  0  0  0  0  0  0  0  0  0  0
   -1.4204   -0.7759    0.4329 C   0  0  0  0  0  0  0  0  0  0  0  0
    0.0498   -0.4219    0.2445 C   0  0  0  0  0  0  0  0  0  0  0  0
    0.6178   -1.1008   -1.0016 C   0  0  0  0  0  0  0  0  0  0  0  0
   -0.2080   -0.6870   -2.2229 C   0  0  0  0  0  0  0  0  0  0  0  0
   -1.6760   -1.0421   -2.0264 C   0  0  0  0  0  0  0  0  0  0  0  0
    2.0310   -0.6658   -1.2071 N   0  0  0  0  0  0  0  0  0  0  0  0
    3.2299   -1.6447   -0.4856 S   0  0  0  0  0  6  0  0  0  0  0  0
    2.6208   -2.2289    0.6860 O   0  0  0  0  0  0  0  0  0  0  0  0
    3.7675   -2.4720   -1.5413 O   0  0  0  0  0  0  0  0  0  0  0  0
    4.4708   -0.4648   -0.0354 C   0  0  0  0  0  0  0  0  0  0  0  0
    4.9554    0.4285   -1.0078 C   0  0  0  0  0  0  0  0  0  0  0  0
    4.4740    0.4271   -2.6733 Cl  0  0  0  0  0  0  0  0  0  0  0  0
    5.9169    1.3945   -0.6731 C   0  0  0  0  0  0  0  0  0  0  0  0
    6.4244    1.4859    0.6254 C   0  0  0  0  0  0  0  0  0  0  0  0
    5.9699    0.5691    1.5780 C   0  0  0  0  0  0  0  0  0  0  0  0
    5.0061   -0.4040    1.2585 C   0  0  0  0  0  0  0  0  0  0  0  0
    4.6309   -1.4827    2.5536 Cl  0  0  0  0  0  0  0  0  0  0  0  0
    7.4741    2.5148    0.9688 C   0  0  0  0  0  0  0  0  0  0  0  0
    8.7130    2.1392    0.5566 F   0  0  0  0  0  0  0  0  0  0  0  0
    7.2320    3.7214    0.3905 F   0  0  0  0  0  0  0  0  0  0  0  0
    7.5742    2.7528    2.3036 F   0  0  0  0  0  0  0  0  0  0  0  0
   -7.3047   -0.7847    0.8708 H   0  0  0  0  0  0  0  0  0  0  0  0
   -5.8862   -1.8561    0.9487 H   0  0  0  0  0  0  0  0  0  0  0  0
   -6.3454   -1.1095   -0.5738 H   0  0  0  0  0  0  0  0  0  0  0  0
   -6.8412    1.8523    0.4936 H   0  0  0  0  0  0  0  0  0  0  0  0
   -5.1458    2.3621    0.3266 H   0  0  0  0  0  0  0  0  0  0  0  0
   -5.9128    1.4184   -0.9414 H   0  0  0  0  0  0  0  0  0  0  0  0
   -4.7714    1.3173    2.6509 H   0  0  0  0  0  0  0  0  0  0  0  0
   -5.0695   -0.3947    2.9010 H   0  0  0  0  0  0  0  0  0  0  0  0
   -6.4438    0.7172    2.7111 H   0  0  0  0  0  0  0  0  0  0  0  0
   -1.8159   -0.2066    1.2800 H   0  0  0  0  0  0  0  0  0  0  0  0
   -1.5321   -1.8397    0.6751 H   0  0  0  0  0  0  0  0  0  0  0  0
    0.1521    0.6674    0.1500 H   0  0  0  0  0  0  0  0  0  0  0  0
    0.6082   -0.7063    1.1421 H   0  0  0  0  0  0  0  0  0  0  0  0
    0.5708   -2.1931   -0.9106 H   0  0  0  0  0  0  0  0  0  0  0  0
   -0.1118    0.3943   -2.3896 H   0  0  0  0  0  0  0  0  0  0  0  0
    0.1726   -1.1792   -3.1263 H   0  0  0  0  0  0  0  0  0  0  0  0
   -2.2565   -0.6593   -2.8728 H   0  0  0  0  0  0  0  0  0  0  0  0
   -1.8078   -2.1308   -2.0089 H   0  0  0  0  0  0  0  0  0  0  0  0
    2.2628   -0.6360   -2.2059 H   0  0  0  0  0  0  0  0  0  0  0  0
    6.2813    2.0832   -1.4371 H   0  0  0  0  0  0  0  0  0  0  0  0
    6.3803    0.6066    2.5892 H   0  0  0  0  0  0  0  0  0  0  0  0
  1  2  1  0
  2  3  1  0
  2  4  1  0
  2  5  1  0
  5  6  1  0
  6  7  2  0
  6  8  1  0
  8  9  1  0
  9 10  1  0
 10 11  1  0
 11 12  1  0
 12 13  1  0
 11 14  1  0
 14 15  1  0
 15 16  2  0
 15 17  2  0
 15 18  1  0
 18 19  2  0
 19 20  1  0
 19 21  1  0
 21 22  2  0
 22 23  1  0
 23 24  2  0
 24 25  1  0
 22 26  1  0
 26 27  1  0
 26 28  1  0
 26 29  1  0
 13  8  1  0
 24 18  1  0
  1 30  1  0
  1 31  1  0
  1 32  1  0
  3 33  1  0
  3 34  1  0
  3 35  1  0
  4 36  1  0
  4 37  1  0
  4 38  1  0
  9 39  1  0
  9 40  1  0
 10 41  1  0
 10 42  1  0
 11 43  1  0
 12 44  1  0
 12 45  1  0
 13 46  1  0
 13 47  1  0
 14 48  1  0
 21 49  1  0
 23 50  1  0
M  END
>  <Unnamed: 0>  (23) 
116

>  <ID>  (23) 
TRAIN_0116

>  <Canonical_Smiles>  (23) 
CC(C)(C)OC(=O)N1CCC(CC1)NS(=O)(=O)c2c(Cl)cc(cc2Cl)C(F)(F)F

>  <Inhibition>  (23) 
47.7

>  <TDC_conf_true_inhibitor>  (23) 
1

>  <TDC_conf_non_inhibitor>  (23) 
0

>  <split>  (23) 
1

$$$$
23
     RDKit          3D

 70 73  0  0  0  0  0  0  0  0999 V2000
    8.3051   -0.2219   -0.8058 C   0  0  0  0  0  0  0  0  0  0  0  0
    8.3168   -1.4053    0.0519 N   0  0  0  0  0  0  0  0  0  0  0  0
    9.3173   -2.3662   -0.4028 C   0  0  0  0  0  0  0  0  0  0  0  0
    8.4949   -1.0552    1.4654 C   0  0  0  0  0  0  0  0  0  0  0  0
    7.3173   -1.5387    2.3257 C   0  0  0  0  0  0  0  0  0  0  0  0
    6.0341   -0.7262    2.1304 C   0  0  0  0  0  0  0  0  0  0  0  0
    5.4104   -1.0825    0.8994 O   0  0  0  0  0  0  0  0  0  0  0  0
    4.4487   -0.2336    0.4294 C   0  0  0  0  0  0  0  0  0  0  0  0
    4.1510   -0.3779   -0.9256 C   0  0  0  0  0  0  0  0  0  0  0  0
    3.1878    0.4312   -1.5322 C   0  0  0  0  0  0  0  0  0  0  0  0
    2.4928    1.3924   -0.7861 C   0  0  0  0  0  0  0  0  0  0  0  0
    1.4502    2.2732   -1.4437 C   0  0  0  0  0  0  0  0  0  0  0  0
    0.0547    1.8332   -1.3405 N   0  0  0  0  0  0  0  0  0  0  0  0
   -0.2545    0.6226   -2.1025 C   0  0  0  0  0  0  0  0  0  0  0  0
   -1.5736   -0.0390   -1.6840 C   0  0  0  0  0  0  0  0  0  0  0  0
   -2.5868    0.9994   -1.2097 C   0  0  0  0  0  0  0  0  0  0  0  0
   -2.0213    1.8233   -0.0414 C   0  0  0  0  0  0  0  0  0  0  0  0
   -0.4897    1.8215    0.0090 C   0  0  0  0  0  0  0  0  0  0  0  0
   -3.8456    0.3575   -0.8378 N   0  0  0  0  0  0  0  0  0  0  0  0
   -5.0270    1.0632   -0.7970 C   0  0  0  0  0  0  0  0  0  0  0  0
   -5.1077    2.2295   -1.1636 O   0  0  0  0  0  0  0  0  0  0  0  0
   -6.1921    0.3108   -0.2591 C   0  0  0  0  0  0  0  0  0  0  0  0
   -7.4410    0.8017   -0.0905 C   0  0  0  0  0  0  0  0  0  0  0  0
   -8.0286    2.1404   -0.3718 C   0  0  0  0  0  0  0  0  0  0  0  0
   -8.2640   -0.2745    0.4722 C   0  0  0  0  0  0  0  0  0  0  0  0
   -9.6000   -0.2881    0.8390 C   0  0  0  0  0  0  0  0  0  0  0  0
  -10.1385   -1.4683    1.3620 C   0  0  0  0  0  0  0  0  0  0  0  0
   -9.3426   -2.6148    1.5104 C   0  0  0  0  0  0  0  0  0  0  0  0
   -7.9970   -2.5978    1.1401 C   0  0  0  0  0  0  0  0  0  0  0  0
   -7.4778   -1.4211    0.6254 C   0  0  0  0  0  0  0  0  0  0  0  0
   -6.0854   -1.1360    0.1661 C   0  0  0  0  0  0  0  0  0  0  0  0
    2.7923    1.5250    0.5773 C   0  0  0  0  0  0  0  0  0  0  0  0
    3.7590    0.7140    1.1831 C   0  0  0  0  0  0  0  0  0  0  0  0
    8.0939   -0.4995   -1.8444 H   0  0  0  0  0  0  0  0  0  0  0  0
    7.5120    0.4703   -0.5006 H   0  0  0  0  0  0  0  0  0  0  0  0
    9.2602    0.3164   -0.7794 H   0  0  0  0  0  0  0  0  0  0  0  0
    9.1089   -2.6801   -1.4321 H   0  0  0  0  0  0  0  0  0  0  0  0
    9.2883   -3.2729    0.2125 H   0  0  0  0  0  0  0  0  0  0  0  0
   10.3327   -1.9532   -0.3658 H   0  0  0  0  0  0  0  0  0  0  0  0
    8.6215    0.0267    1.6052 H   0  0  0  0  0  0  0  0  0  0  0  0
    9.4139   -1.5044    1.8661 H   0  0  0  0  0  0  0  0  0  0  0  0
    7.6167   -1.4528    3.3771 H   0  0  0  0  0  0  0  0  0  0  0  0
    7.1261   -2.6009    2.1288 H   0  0  0  0  0  0  0  0  0  0  0  0
    6.2761    0.3437    2.1610 H   0  0  0  0  0  0  0  0  0  0  0  0
    5.3446   -0.9631    2.9494 H   0  0  0  0  0  0  0  0  0  0  0  0
    4.6843   -1.1211   -1.5137 H   0  0  0  0  0  0  0  0  0  0  0  0
    2.9837    0.3038   -2.5929 H   0  0  0  0  0  0  0  0  0  0  0  0
    1.7067    2.3992   -2.5046 H   0  0  0  0  0  0  0  0  0  0  0  0
    1.5378    3.2861   -1.0274 H   0  0  0  0  0  0  0  0  0  0  0  0
   -0.3115    0.8917   -3.1642 H   0  0  0  0  0  0  0  0  0  0  0  0
    0.5269   -0.1387   -2.0099 H   0  0  0  0  0  0  0  0  0  0  0  0
   -1.9780   -0.6186   -2.5233 H   0  0  0  0  0  0  0  0  0  0  0  0
   -1.3820   -0.7596   -0.8766 H   0  0  0  0  0  0  0  0  0  0  0  0
   -2.8011    1.6799   -2.0446 H   0  0  0  0  0  0  0  0  0  0  0  0
   -2.3863    2.8548   -0.1337 H   0  0  0  0  0  0  0  0  0  0  0  0
   -2.3992    1.4540    0.9203 H   0  0  0  0  0  0  0  0  0  0  0  0
   -0.1367    0.9455    0.5678 H   0  0  0  0  0  0  0  0  0  0  0  0
   -0.1746    2.7086    0.5720 H   0  0  0  0  0  0  0  0  0  0  0  0
   -3.7843   -0.5507   -0.4048 H   0  0  0  0  0  0  0  0  0  0  0  0
   -8.8827    2.0452   -1.0502 H   0  0  0  0  0  0  0  0  0  0  0  0
   -8.3756    2.6079    0.5559 H   0  0  0  0  0  0  0  0  0  0  0  0
   -7.3303    2.8338   -0.8428 H   0  0  0  0  0  0  0  0  0  0  0  0
  -10.2235    0.5924    0.7293 H   0  0  0  0  0  0  0  0  0  0  0  0
  -11.1848   -1.4985    1.6580 H   0  0  0  0  0  0  0  0  0  0  0  0
   -9.7801   -3.5225    1.9189 H   0  0  0  0  0  0  0  0  0  0  0  0
   -7.3806   -3.4831    1.2554 H   0  0  0  0  0  0  0  0  0  0  0  0
   -5.8180   -1.7796   -0.6770 H   0  0  0  0  0  0  0  0  0  0  0  0
   -5.3785   -1.2606    0.9919 H   0  0  0  0  0  0  0  0  0  0  0  0
    2.2715    2.2648    1.1809 H   0  0  0  0  0  0  0  0  0  0  0  0
    3.9431    0.8386    2.2444 H   0  0  0  0  0  0  0  0  0  0  0  0
  1  2  1  0
  2  3  1  0
  2  4  1  0
  4  5  1  0
  5  6  1  0
  6  7  1  0
  7  8  1  0
  8  9  2  0
  9 10  1  0
 10 11  2  0
 11 12  1  0
 12 13  1  0
 13 14  1  0
 14 15  1  0
 15 16  1  0
 16 17  1  0
 17 18  1  0
 16 19  1  0
 19 20  1  0
 20 21  2  0
 20 22  1  0
 22 23  2  0
 23 24  1  0
 23 25  1  0
 25 26  2  0
 26 27  1  0
 27 28  2  0
 28 29  1  0
 29 30  2  0
 30 31  1  0
 11 32  1  0
 32 33  2  0
 33  8  1  0
 18 13  1  0
 31 22  1  0
 30 25  1  0
  1 34  1  0
  1 35  1  0
  1 36  1  0
  3 37  1  0
  3 38  1  0
  3 39  1  0
  4 40  1  0
  4 41  1  0
  5 42  1  0
  5 43  1  0
  6 44  1  0
  6 45  1  0
  9 46  1  0
 10 47  1  0
 12 48  1  0
 12 49  1  0
 14 50  1  0
 14 51  1  0
 15 52  1  0
 15 53  1  0
 16 54  1  0
 17 55  1  0
 17 56  1  0
 18 57  1  0
 18 58  1  0
 19 59  1  0
 24 60  1  0
 24 61  1  0
 24 62  1  0
 26 63  1  0
 27 64  1  0
 28 65  1  0
 29 66  1  0
 31 67  1  0
 31 68  1  0
 32 69  1  0
 33 70  1  0
M  END
>  <Unnamed: 0>  (24) 
124

>  <ID>  (24) 
TRAIN_0124

>  <Canonical_Smiles>  (24) 
CN(C)CCCOc1ccc(CN2CCC(CC2)NC(=O)C3=C(C)c4ccccc4C3)cc1

>  <Inhibition>  (24) 
7.18

>  <TDC_conf_true_inhibitor>  (24) 
0

>  <TDC_conf_non_inhibitor>  (24) 
1

>  <split>  (24) 
1

$$$$
24
     RDKit          3D

 31 33  0  0  0  0  0  0  0  0999 V2000
    0.3398    3.7655   -0.8853 C   0  0  0  0  0  0  0  0  0  0  0  0
   -0.8838    2.4539   -0.6920 S   0  0  0  0  0  0  0  0  0  0  0  0
    0.1363    1.0730   -0.2732 C   0  0  0  0  0  0  0  0  0  0  0  0
    1.4142    1.2809   -0.2654 N   0  0  0  0  0  0  0  0  0  0  0  0
    2.2731    0.2044   -0.0520 C   0  0  0  0  0  0  0  0  0  0  0  0
    3.6503    0.4390   -0.0149 C   0  0  0  0  0  0  0  0  0  0  0  0
    4.5484   -0.6155    0.1689 C   0  0  0  0  0  0  0  0  0  0  0  0
    4.0731   -1.9173    0.3149 C   0  0  0  0  0  0  0  0  0  0  0  0
    2.7007   -2.1612    0.2787 C   0  0  0  0  0  0  0  0  0  0  0  0
    1.8086   -1.0959    0.0944 C   0  0  0  0  0  0  0  0  0  0  0  0
    0.3512   -1.3149    0.0770 C   0  0  0  0  0  0  0  0  0  0  0  0
   -0.0459   -2.4717    0.2171 O   0  0  0  0  0  0  0  0  0  0  0  0
   -0.4568   -0.1760   -0.0567 N   0  0  0  0  0  0  0  0  0  0  0  0
   -1.8751   -0.3623    0.0810 C   0  0  0  0  0  0  0  0  0  0  0  0
   -2.5377   -1.3621   -0.6471 C   0  0  0  0  0  0  0  0  0  0  0  0
   -3.9132   -1.5613   -0.5018 C   0  0  0  0  0  0  0  0  0  0  0  0
   -4.6430   -0.7729    0.3840 C   0  0  0  0  0  0  0  0  0  0  0  0
   -3.9972    0.2082    1.1317 C   0  0  0  0  0  0  0  0  0  0  0  0
   -2.6213    0.4080    0.9865 C   0  0  0  0  0  0  0  0  0  0  0  0
    0.8928    3.9227    0.0449 H   0  0  0  0  0  0  0  0  0  0  0  0
   -0.1746    4.6972   -1.1370 H   0  0  0  0  0  0  0  0  0  0  0  0
    1.0368    3.5326   -1.6951 H   0  0  0  0  0  0  0  0  0  0  0  0
    4.0248    1.4528   -0.1347 H   0  0  0  0  0  0  0  0  0  0  0  0
    5.6175   -0.4190    0.1955 H   0  0  0  0  0  0  0  0  0  0  0  0
    4.7690   -2.7405    0.4583 H   0  0  0  0  0  0  0  0  0  0  0  0
    2.3284   -3.1766    0.3981 H   0  0  0  0  0  0  0  0  0  0  0  0
   -1.9919   -1.9922   -1.3460 H   0  0  0  0  0  0  0  0  0  0  0  0
   -4.4109   -2.3367   -1.0785 H   0  0  0  0  0  0  0  0  0  0  0  0
   -5.7122   -0.9305    0.4989 H   0  0  0  0  0  0  0  0  0  0  0  0
   -4.5615    0.8139    1.8363 H   0  0  0  0  0  0  0  0  0  0  0  0
   -2.1399    1.1546    1.6134 H   0  0  0  0  0  0  0  0  0  0  0  0
  1  2  1  0
  2  3  1  0
  3  4  2  0
  4  5  1  0
  5  6  2  0
  6  7  1  0
  7  8  2  0
  8  9  1  0
  9 10  2  0
 10 11  1  0
 11 12  2  0
 11 13  1  0
 13 14  1  0
 14 15  2  0
 15 16  1  0
 16 17  2  0
 17 18  1  0
 18 19  2  0
 13  3  1  0
 10  5  1  0
 19 14  1  0
  1 20  1  0
  1 21  1  0
  1 22  1  0
  6 23  1  0
  7 24  1  0
  8 25  1  0
  9 26  1  0
 15 27  1  0
 16 28  1  0
 17 29  1  0
 18 30  1  0
 19 31  1  0
M  END
>  <Unnamed: 0>  (25) 
127

>  <ID>  (25) 
TRAIN_0127

>  <Canonical_Smiles>  (25) 
CSC1=Nc2ccccc2C(=O)N1c3ccccc3

>  <Inhibition>  (25) 
9.86

>  <TDC_conf_true_inhibitor>  (25) 
0

>  <TDC_conf_non_inhibitor>  (25) 
1

>  <split>  (25) 
1

$$$$
25
     RDKit          3D

 33 35  0  0  0  0  0  0  0  0999 V2000
   -5.5962   -0.5011    1.0694 C   0  0  0  0  0  0  0  0  0  0  0  0
   -5.1111   -0.2211   -0.6135 S   0  0  0  0  0  6  0  0  0  0  0  0
   -5.6555    1.0549   -1.0355 O   0  0  0  0  0  0  0  0  0  0  0  0
   -5.3693   -1.4292   -1.3724 O   0  0  0  0  0  0  0  0  0  0  0  0
   -3.3480   -0.0341   -0.5097 C   0  0  0  0  0  0  0  0  0  0  0  0
   -2.5311   -1.1634   -0.5385 C   0  0  0  0  0  0  0  0  0  0  0  0
   -1.1402   -1.0140   -0.4722 C   0  0  0  0  0  0  0  0  0  0  0  0
   -0.5426    0.2570   -0.3921 C   0  0  0  0  0  0  0  0  0  0  0  0
    0.8900    0.4026   -0.3354 N   0  0  0  0  0  0  0  0  0  0  0  0
    1.4972    1.5021   -0.9121 C   0  0  0  0  0  0  0  0  0  0  0  0
    2.7658    1.7531   -0.9160 N   0  0  0  0  0  0  0  0  0  0  0  0
    3.6129    0.8366   -0.2908 C   0  0  0  0  0  0  0  0  0  0  0  0
    4.9881    1.0834   -0.2898 C   0  0  0  0  0  0  0  0  0  0  0  0
    5.8715    0.1867    0.3174 C   0  0  0  0  0  0  0  0  0  0  0  0
    5.3756   -0.9642    0.9275 C   0  0  0  0  0  0  0  0  0  0  0  0
    6.5684   -2.1772    1.7501 Br  0  0  0  0  0  0  0  0  0  0  0  0
    4.0079   -1.2255    0.9359 C   0  0  0  0  0  0  0  0  0  0  0  0
    3.1336   -0.3187    0.3222 C   0  0  0  0  0  0  0  0  0  0  0  0
    1.6747   -0.5524    0.3204 C   0  0  0  0  0  0  0  0  0  0  0  0
    1.2556   -1.5359    0.9289 O   0  0  0  0  0  0  0  0  0  0  0  0
   -1.4028    1.3710   -0.3792 C   0  0  0  0  0  0  0  0  0  0  0  0
   -0.9147    2.6124   -0.2378 F   0  0  0  0  0  0  0  0  0  0  0  0
   -2.7895    1.2391   -0.4417 C   0  0  0  0  0  0  0  0  0  0  0  0
   -5.1136   -1.4098    1.4340 H   0  0  0  0  0  0  0  0  0  0  0  0
   -6.6813   -0.6225    1.0931 H   0  0  0  0  0  0  0  0  0  0  0  0
   -5.3062    0.3616    1.6720 H   0  0  0  0  0  0  0  0  0  0  0  0
   -2.9577   -2.1619   -0.6235 H   0  0  0  0  0  0  0  0  0  0  0  0
   -0.5353   -1.9181   -0.5207 H   0  0  0  0  0  0  0  0  0  0  0  0
    0.8334    2.1979   -1.4438 H   0  0  0  0  0  0  0  0  0  0  0  0
    5.3710    1.9822   -0.7677 H   0  0  0  0  0  0  0  0  0  0  0  0
    6.9382    0.3968    0.3076 H   0  0  0  0  0  0  0  0  0  0  0  0
    3.6190   -2.1211    1.4146 H   0  0  0  0  0  0  0  0  0  0  0  0
   -3.4081    2.1328   -0.4297 H   0  0  0  0  0  0  0  0  0  0  0  0
  1  2  1  0
  2  3  2  0
  2  4  2  0
  2  5  1  0
  5  6  2  0
  6  7  1  0
  7  8  2  0
  8  9  1  0
  9 10  1  0
 10 11  2  0
 11 12  1  0
 12 13  2  0
 13 14  1  0
 14 15  2  0
 15 16  1  0
 15 17  1  0
 17 18  2  0
 18 19  1  0
 19 20  2  0
  8 21  1  0
 21 22  1  0
 21 23  2  0
 23  5  1  0
 19  9  1  0
 18 12  1  0
  1 24  1  0
  1 25  1  0
  1 26  1  0
  6 27  1  0
  7 28  1  0
 10 29  1  0
 13 30  1  0
 14 31  1  0
 17 32  1  0
 23 33  1  0
M  END
>  <Unnamed: 0>  (26) 
552

>  <ID>  (26) 
TRAIN_0552

>  <Canonical_Smiles>  (26) 
CS(=O)(=O)c1ccc(N2C=Nc3ccc(Br)cc3C2=O)c(F)c1

>  <Inhibition>  (26) 
22.7

>  <TDC_conf_true_inhibitor>  (26) 
0

>  <TDC_conf_non_inhibitor>  (26) 
1

>  <split>  (26) 
1

$$$$
26
     RDKit          3D

 41 44  0  0  0  0  0  0  0  0999 V2000
    0.6521    1.2883    2.9212 O   0  0  0  0  0  0  0  0  0  0  0  0
    0.1467    0.7216    1.9601 C   0  0  0  0  0  0  0  0  0  0  0  0
    0.8016    0.2172    0.8543 N   0  0  0  0  0  0  0  0  0  0  0  0
    2.1772    0.2315    0.5722 C   0  0  0  0  0  0  0  0  0  0  0  0
    3.1402    0.7844    1.4138 C   0  0  0  0  0  0  0  0  0  0  0  0
    4.4980    0.7602    1.0622 C   0  0  0  0  0  0  0  0  0  0  0  0
    4.9135    0.1792   -0.1431 C   0  0  0  0  0  0  0  0  0  0  0  0
    3.9449   -0.3764   -0.9887 C   0  0  0  0  0  0  0  0  0  0  0  0
    2.5906   -0.3484   -0.6304 C   0  0  0  0  0  0  0  0  0  0  0  0
    6.2930    0.1537   -0.5024 N   0  0  0  0  0  0  0  0  0  0  0  0
    6.8525   -0.3780   -1.6464 C   0  0  0  0  0  0  0  0  0  0  0  0
    8.2073   -0.1672   -1.5474 C   0  0  0  0  0  0  0  0  0  0  0  0
    8.5130    0.4757   -0.3850 N   0  0  0  0  0  0  0  0  0  0  0  0
    7.3578    0.6550    0.2182 C   0  0  0  0  0  0  0  0  0  0  0  0
   -1.3027    0.5016    1.8664 C   0  0  0  0  0  0  0  0  0  0  0  0
   -2.2130    0.9009    2.8228 C   0  0  0  0  0  0  0  0  0  0  0  0
   -3.7906    0.4498    2.3528 S   0  0  0  0  0  0  0  0  0  0  0  0
   -3.1794   -0.2143    0.8777 C   0  0  0  0  0  0  0  0  0  0  0  0
   -3.9276   -0.8471   -0.0557 N   0  0  0  0  0  0  0  0  0  0  0  0
   -5.2599   -0.6330   -0.4588 C   0  0  0  0  0  0  0  0  0  0  0  0
   -5.9239   -1.6806   -1.1189 C   0  0  0  0  0  0  0  0  0  0  0  0
   -7.2573   -1.5582   -1.5194 C   0  0  0  0  0  0  0  0  0  0  0  0
   -7.9540   -0.3824   -1.2616 C   0  0  0  0  0  0  0  0  0  0  0  0
   -7.3162    0.6659   -0.6048 C   0  0  0  0  0  0  0  0  0  0  0  0
   -5.9816    0.5384   -0.2039 C   0  0  0  0  0  0  0  0  0  0  0  0
   -1.8675   -0.1544    0.7666 N   0  0  0  0  0  0  0  0  0  0  0  0
    0.1820   -0.2129    0.1724 H   0  0  0  0  0  0  0  0  0  0  0  0
    2.8722    1.2468    2.3595 H   0  0  0  0  0  0  0  0  0  0  0  0
    5.1942    1.2090    1.7647 H   0  0  0  0  0  0  0  0  0  0  0  0
    4.2001   -0.8412   -1.9359 H   0  0  0  0  0  0  0  0  0  0  0  0
    1.8651   -0.7888   -1.3106 H   0  0  0  0  0  0  0  0  0  0  0  0
    6.2762   -0.8521   -2.4247 H   0  0  0  0  0  0  0  0  0  0  0  0
    8.9759   -0.4472   -2.2564 H   0  0  0  0  0  0  0  0  0  0  0  0
    7.2492    1.1426    1.1762 H   0  0  0  0  0  0  0  0  0  0  0  0
   -2.0193    1.4146    3.7546 H   0  0  0  0  0  0  0  0  0  0  0  0
   -3.3933   -1.3524   -0.7531 H   0  0  0  0  0  0  0  0  0  0  0  0
   -5.4057   -2.6165   -1.3151 H   0  0  0  0  0  0  0  0  0  0  0  0
   -7.7506   -2.3836   -2.0258 H   0  0  0  0  0  0  0  0  0  0  0  0
   -8.9913   -0.2826   -1.5701 H   0  0  0  0  0  0  0  0  0  0  0  0
   -7.8544    1.5891   -0.4046 H   0  0  0  0  0  0  0  0  0  0  0  0
   -5.5149    1.3919    0.2780 H   0  0  0  0  0  0  0  0  0  0  0  0
  1  2  2  0
  2  3  1  0
  3  4  1  0
  4  5  2  0
  5  6  1  0
  6  7  2  0
  7  8  1  0
  8  9  2  0
  7 10  1  0
 10 11  1  0
 11 12  2  0
 12 13  1  0
 13 14  2  0
  2 15  1  0
 15 16  2  0
 16 17  1  0
 17 18  1  0
 18 19  1  0
 19 20  1  0
 20 21  2  0
 21 22  1  0
 22 23  2  0
 23 24  1  0
 24 25  2  0
 18 26  2  0
  9  4  1  0
 14 10  1  0
 26 15  1  0
 25 20  1  0
  3 27  1  0
  5 28  1  0
  6 29  1  0
  8 30  1  0
  9 31  1  0
 11 32  1  0
 12 33  1  0
 14 34  1  0
 16 35  1  0
 19 36  1  0
 21 37  1  0
 22 38  1  0
 23 39  1  0
 24 40  1  0
 25 41  1  0
M  END
>  <Unnamed: 0>  (27) 
130

>  <ID>  (27) 
TRAIN_0130

>  <Canonical_Smiles>  (27) 
O=C(Nc1ccc(cc1)n2ccnc2)c3csc(Nc4ccccc4)n3

>  <Inhibition>  (27) 
94.8

>  <TDC_conf_true_inhibitor>  (27) 
1

>  <TDC_conf_non_inhibitor>  (27) 
0

>  <split>  (27) 
1

$$$$
27
     RDKit          3D

 31 33  0  0  0  0  0  0  0  0999 V2000
    5.4175   -0.8375    1.7419 Br  0  0  0  0  0  0  0  0  0  0  0  0
    3.7055   -0.5832    0.9822 C   0  0  0  0  0  0  0  0  0  0  0  0
    2.8036    0.2887    1.5865 C   0  0  0  0  0  0  0  0  0  0  0  0
    1.5374    0.4757    1.0262 C   0  0  0  0  0  0  0  0  0  0  0  0
    1.1642   -0.1988   -0.1506 C   0  0  0  0  0  0  0  0  0  0  0  0
    2.0874   -1.0842   -0.7354 C   0  0  0  0  0  0  0  0  0  0  0  0
    3.3530   -1.2730   -0.1747 C   0  0  0  0  0  0  0  0  0  0  0  0
   -0.2240   -0.0419   -0.7812 C   0  0  0  0  0  0  0  0  0  0  0  0
   -1.1728   -1.1317   -0.3438 C   0  0  0  0  0  0  0  0  0  0  0  0
   -2.0967   -1.8581   -1.0749 C   0  0  0  0  0  0  0  0  0  0  0  0
   -2.7374   -2.7584   -0.1915 C   0  0  0  0  0  0  0  0  0  0  0  0
   -2.1937   -2.5629    1.0567 C   0  0  0  0  0  0  0  0  0  0  0  0
   -1.2501   -1.5751    0.9582 N   0  0  0  0  0  0  0  0  0  0  0  0
   -0.8103    1.3436   -0.6148 C   0  0  0  0  0  0  0  0  0  0  0  0
   -1.9473    1.8046    0.0279 C   0  0  0  0  0  0  0  0  0  0  0  0
   -2.0038    3.2084   -0.1384 C   0  0  0  0  0  0  0  0  0  0  0  0
   -0.9071    3.5762   -0.8819 C   0  0  0  0  0  0  0  0  0  0  0  0
   -0.1957    2.4438   -1.1760 N   0  0  0  0  0  0  0  0  0  0  0  0
    3.0730    0.8259    2.4923 H   0  0  0  0  0  0  0  0  0  0  0  0
    0.8443    1.1571    1.5172 H   0  0  0  0  0  0  0  0  0  0  0  0
    1.8182   -1.6423   -1.6309 H   0  0  0  0  0  0  0  0  0  0  0  0
    4.0498   -1.9624   -0.6442 H   0  0  0  0  0  0  0  0  0  0  0  0
   -0.0854   -0.1649   -1.8675 H   0  0  0  0  0  0  0  0  0  0  0  0
   -2.2913   -1.7447   -2.1338 H   0  0  0  0  0  0  0  0  0  0  0  0
   -3.5133   -3.4711   -0.4394 H   0  0  0  0  0  0  0  0  0  0  0  0
   -2.3970   -3.0397    2.0060 H   0  0  0  0  0  0  0  0  0  0  0  0
   -0.6867   -1.2265    1.7233 H   0  0  0  0  0  0  0  0  0  0  0  0
   -2.6665    1.1919    0.5579 H   0  0  0  0  0  0  0  0  0  0  0  0
   -2.7658    3.8770    0.2407 H   0  0  0  0  0  0  0  0  0  0  0  0
   -0.5748    4.5446   -1.2309 H   0  0  0  0  0  0  0  0  0  0  0  0
    0.6658    2.4186   -1.7071 H   0  0  0  0  0  0  0  0  0  0  0  0
  1  2  1  0
  2  3  2  0
  3  4  1  0
  4  5  2  0
  5  6  1  0
  6  7  2  0
  5  8  1  0
  8  9  1  0
  9 10  2  0
 10 11  1  0
 11 12  2  0
 12 13  1  0
  8 14  1  0
 14 15  2  0
 15 16  1  0
 16 17  2  0
 17 18  1  0
  7  2  1  0
 13  9  1  0
 18 14  1  0
  3 19  1  0
  4 20  1  0
  6 21  1  0
  7 22  1  0
  8 23  1  0
 10 24  1  0
 11 25  1  0
 12 26  1  0
 13 27  1  0
 15 28  1  0
 16 29  1  0
 17 30  1  0
 18 31  1  0
M  END
>  <Unnamed: 0>  (28) 
132

>  <ID>  (28) 
TRAIN_0132

>  <Canonical_Smiles>  (28) 
Brc1ccc(cc1)C(c2ccc[nH]2)c3ccc[nH]3

>  <Inhibition>  (28) 
61.3

>  <TDC_conf_true_inhibitor>  (28) 
1

>  <TDC_conf_non_inhibitor>  (28) 
0

>  <split>  (28) 
1

$$$$
28
     RDKit          3D

 49 53  0  0  0  0  0  0  0  0999 V2000
    8.2952   -1.2840   -0.4114 C   0  0  0  0  0  0  0  0  0  0  0  0
    6.8703   -0.8291   -0.5189 C   0  0  0  0  0  0  0  0  0  0  0  0
    6.1239   -1.0873   -1.6674 C   0  0  0  0  0  0  0  0  0  0  0  0
    4.8086   -0.6273   -1.7624 C   0  0  0  0  0  0  0  0  0  0  0  0
    4.2188    0.0983   -0.7363 C   0  0  0  0  0  0  0  0  0  0  0  0
    2.9443    0.5189   -0.8689 N   0  0  0  0  0  0  0  0  0  0  0  0
    2.3851    1.2210    0.1486 C   0  0  0  0  0  0  0  0  0  0  0  0
    1.0582    1.6432   -0.0028 N   0  0  0  0  0  0  0  0  0  0  0  0
    0.1117    1.2183    1.0508 C   0  0  0  0  0  0  0  0  0  0  0  0
   -1.1214    0.4754    0.4907 C   0  0  0  0  0  0  0  0  0  0  0  0
   -1.7851    1.1914   -0.6058 N   0  0  0  0  0  0  0  0  0  0  0  0
   -0.9258    2.0617   -1.4136 C   0  0  0  0  0  0  0  0  0  0  0  0
    0.5423    1.6127   -1.3845 C   0  0  0  0  0  0  0  0  0  0  0  0
   -3.1601    1.2861   -0.7905 C   0  0  0  0  0  0  0  0  0  0  0  0
   -3.6398    2.1890   -1.4770 O   0  0  0  0  0  0  0  0  0  0  0  0
   -4.0325    0.3128   -0.1642 C   0  0  0  0  0  0  0  0  0  0  0  0
   -3.8607   -1.0112    0.2051 C   0  0  0  0  0  0  0  0  0  0  0  0
   -5.0788   -1.4889    0.7637 C   0  0  0  0  0  0  0  0  0  0  0  0
   -5.4893   -2.7174    1.3155 C   0  0  0  0  0  0  0  0  0  0  0  0
   -6.8029   -2.8533    1.7799 C   0  0  0  0  0  0  0  0  0  0  0  0
   -7.7005   -1.7908    1.6948 C   0  0  0  0  0  0  0  0  0  0  0  0
   -7.3161   -0.5645    1.1439 C   0  0  0  0  0  0  0  0  0  0  0  0
   -5.9982   -0.4462    0.6886 C   0  0  0  0  0  0  0  0  0  0  0  0
   -5.3538    0.6126    0.0968 N   0  0  0  0  0  0  0  0  0  0  0  0
    3.1763    1.5031    1.2803 C   0  0  0  0  0  0  0  0  0  0  0  0
    2.6517    2.4905    2.5941 Cl  0  0  0  0  0  0  0  0  0  0  0  0
    4.4558    1.0854    1.4399 N   0  0  0  0  0  0  0  0  0  0  0  0
    4.9740    0.3784    0.4251 C   0  0  0  0  0  0  0  0  0  0  0  0
    6.2824   -0.0839    0.5113 C   0  0  0  0  0  0  0  0  0  0  0  0
    8.9656   -0.5085   -0.7944 H   0  0  0  0  0  0  0  0  0  0  0  0
    8.5586   -1.4982    0.6297 H   0  0  0  0  0  0  0  0  0  0  0  0
    8.4560   -2.2043   -0.9827 H   0  0  0  0  0  0  0  0  0  0  0  0
    6.5550   -1.6462   -2.4955 H   0  0  0  0  0  0  0  0  0  0  0  0
    4.2308   -0.8376   -2.6593 H   0  0  0  0  0  0  0  0  0  0  0  0
    0.5823    0.5653    1.7958 H   0  0  0  0  0  0  0  0  0  0  0  0
   -0.2324    2.1207    1.5706 H   0  0  0  0  0  0  0  0  0  0  0  0
   -0.8077   -0.4950    0.0886 H   0  0  0  0  0  0  0  0  0  0  0  0
   -1.8212    0.3021    1.3129 H   0  0  0  0  0  0  0  0  0  0  0  0
   -1.2966    2.0731   -2.4449 H   0  0  0  0  0  0  0  0  0  0  0  0
   -1.0218    3.0781   -1.0119 H   0  0  0  0  0  0  0  0  0  0  0  0
    1.1328    2.2871   -2.0163 H   0  0  0  0  0  0  0  0  0  0  0  0
    0.6068    0.5996   -1.8034 H   0  0  0  0  0  0  0  0  0  0  0  0
   -2.9587   -1.5941    0.0801 H   0  0  0  0  0  0  0  0  0  0  0  0
   -4.7979   -3.5519    1.3818 H   0  0  0  0  0  0  0  0  0  0  0  0
   -7.1253   -3.7992    2.2083 H   0  0  0  0  0  0  0  0  0  0  0  0
   -8.7178   -1.9172    2.0584 H   0  0  0  0  0  0  0  0  0  0  0  0
   -8.0190    0.2591    1.0723 H   0  0  0  0  0  0  0  0  0  0  0  0
   -5.7769    1.5044   -0.1245 H   0  0  0  0  0  0  0  0  0  0  0  0
    6.8537    0.1476    1.4085 H   0  0  0  0  0  0  0  0  0  0  0  0
  1  2  1  0
  2  3  2  0
  3  4  1  0
  4  5  2  0
  5  6  1  0
  6  7  2  0
  7  8  1  0
  8  9  1  0
  9 10  1  0
 10 11  1  0
 11 12  1  0
 12 13  1  0
 11 14  1  0
 14 15  2  0
 14 16  1  0
 16 17  2  0
 17 18  1  0
 18 19  2  0
 19 20  1  0
 20 21  2  0
 21 22  1  0
 22 23  2  0
 23 24  1  0
  7 25  1  0
 25 26  1  0
 25 27  2  0
 27 28  1  0
 28 29  2  0
 29  2  1  0
 28  5  1  0
 13  8  1  0
 24 16  1  0
 23 18  1  0
  1 30  1  0
  1 31  1  0
  1 32  1  0
  3 33  1  0
  4 34  1  0
  9 35  1  0
  9 36  1  0
 10 37  1  0
 10 38  1  0
 12 39  1  0
 12 40  1  0
 13 41  1  0
 13 42  1  0
 17 43  1  0
 19 44  1  0
 20 45  1  0
 21 46  1  0
 22 47  1  0
 24 48  1  0
 29 49  1  0
M  END
>  <Unnamed: 0>  (29) 
134

>  <ID>  (29) 
TRAIN_0134

>  <Canonical_Smiles>  (29) 
Cc1ccc2nc(N3CCN(CC3)C(=O)c4cc5ccccc5[nH]4)c(Cl)nc2c1

>  <Inhibition>  (29) 
47.4

>  <TDC_conf_true_inhibitor>  (29) 
1

>  <TDC_conf_non_inhibitor>  (29) 
0

>  <split>  (29) 
1

$$$$
29
     RDKit          3D

 42 44  0  0  0  0  0  0  0  0999 V2000
   -3.0848    4.2596   -0.8707 C   0  0  0  0  0  0  0  0  0  0  0  0
   -2.8418    2.8539   -0.9008 O   0  0  0  0  0  0  0  0  0  0  0  0
   -2.0381    2.4069    0.1106 C   0  0  0  0  0  0  0  0  0  0  0  0
   -1.5539    3.1390    0.9656 O   0  0  0  0  0  0  0  0  0  0  0  0
   -1.7891    0.9626    0.0456 C   0  0  0  0  0  0  0  0  0  0  0  0
   -2.5681   -0.0031   -0.5936 C   0  0  0  0  0  0  0  0  0  0  0  0
   -3.9335    0.1687   -1.1789 C   0  0  0  0  0  0  0  0  0  0  0  0
   -1.8935   -1.2310   -0.5378 N   0  0  0  0  0  0  0  0  0  0  0  0
   -2.1606   -2.4284   -1.2567 C   0  0  0  0  0  0  0  0  0  0  0  0
   -1.7351   -3.5060   -0.8492 O   0  0  0  0  0  0  0  0  0  0  0  0
   -2.9225   -2.2965   -2.5396 C   0  0  0  0  0  0  0  0  0  0  0  0
   -0.8459   -1.0891    0.3857 C   0  0  0  0  0  0  0  0  0  0  0  0
    0.0563   -2.0364    0.9134 C   0  0  0  0  0  0  0  0  0  0  0  0
    1.0651   -1.6065    1.7795 C   0  0  0  0  0  0  0  0  0  0  0  0
    1.1909   -0.2632    2.1060 C   0  0  0  0  0  0  0  0  0  0  0  0
    2.2546    0.1425    2.9631 N   0  0  0  0  0  0  0  0  0  0  0  0
    3.5327    1.0109    2.2655 S   0  0  0  0  0  6  0  0  0  0  0  0
    4.5914    1.0032    3.2546 O   0  0  0  0  0  0  0  0  0  0  0  0
    3.0425    2.2434    1.6896 O   0  0  0  0  0  0  0  0  0  0  0  0
    4.1914    0.0117    0.9370 C   0  0  0  0  0  0  0  0  0  0  0  0
    5.0292   -1.0889    0.9564 C   0  0  0  0  0  0  0  0  0  0  0  0
    5.2996   -1.5895   -0.3513 C   0  0  0  0  0  0  0  0  0  0  0  0
    4.6567   -0.8577   -1.3254 C   0  0  0  0  0  0  0  0  0  0  0  0
    3.7316    0.4218   -0.6634 S   0  0  0  0  0  0  0  0  0  0  0  0
    0.3097    0.6783    1.5725 C   0  0  0  0  0  0  0  0  0  0  0  0
   -0.7346    0.2657    0.7100 C   0  0  0  0  0  0  0  0  0  0  0  0
   -2.1519    4.8127   -1.0191 H   0  0  0  0  0  0  0  0  0  0  0  0
   -3.5609    4.5485    0.0704 H   0  0  0  0  0  0  0  0  0  0  0  0
   -3.7667    4.5015   -1.6900 H   0  0  0  0  0  0  0  0  0  0  0  0
   -3.8797    0.3900   -2.2477 H   0  0  0  0  0  0  0  0  0  0  0  0
   -4.4707    0.9869   -0.6896 H   0  0  0  0  0  0  0  0  0  0  0  0
   -4.5519   -0.7168   -1.0130 H   0  0  0  0  0  0  0  0  0  0  0  0
   -3.9974   -2.3304   -2.3575 H   0  0  0  0  0  0  0  0  0  0  0  0
   -2.6345   -1.3968   -3.0883 H   0  0  0  0  0  0  0  0  0  0  0  0
   -2.6676   -3.1481   -3.1804 H   0  0  0  0  0  0  0  0  0  0  0  0
   -0.0129   -3.0921    0.6621 H   0  0  0  0  0  0  0  0  0  0  0  0
    1.7535   -2.3455    2.1806 H   0  0  0  0  0  0  0  0  0  0  0  0
    2.6180   -0.5708    3.5928 H   0  0  0  0  0  0  0  0  0  0  0  0
    5.4362   -1.4971    1.8705 H   0  0  0  0  0  0  0  0  0  0  0  0
    5.9366   -2.4378   -0.5690 H   0  0  0  0  0  0  0  0  0  0  0  0
    4.6883   -1.0055   -2.3983 H   0  0  0  0  0  0  0  0  0  0  0  0
    0.4115    1.7294    1.8369 H   0  0  0  0  0  0  0  0  0  0  0  0
  1  2  1  0
  2  3  1  0
  3  4  2  0
  3  5  1  0
  5  6  2  0
  6  7  1  0
  6  8  1  0
  8  9  1  0
  9 10  2  0
  9 11  1  0
  8 12  1  0
 12 13  2  0
 13 14  1  0
 14 15  2  0
 15 16  1  0
 16 17  1  0
 17 18  2  0
 17 19  2  0
 17 20  1  0
 20 21  2  0
 21 22  1  0
 22 23  2  0
 23 24  1  0
 15 25  1  0
 25 26  2  0
 26  5  1  0
 26 12  1  0
 24 20  1  0
  1 27  1  0
  1 28  1  0
  1 29  1  0
  7 30  1  0
  7 31  1  0
  7 32  1  0
 11 33  1  0
 11 34  1  0
 11 35  1  0
 13 36  1  0
 14 37  1  0
 16 38  1  0
 21 39  1  0
 22 40  1  0
 23 41  1  0
 25 42  1  0
M  END
>  <Unnamed: 0>  (30) 
138

>  <ID>  (30) 
TRAIN_0138

>  <Canonical_Smiles>  (30) 
COC(=O)c1c(C)n(C(=O)C)c2ccc(NS(=O)(=O)c3cccs3)cc12

>  <Inhibition>  (30) 
42.5

>  <TDC_conf_true_inhibitor>  (30) 
1

>  <TDC_conf_non_inhibitor>  (30) 
0

>  <split>  (30) 
1

$$$$
30
     RDKit          3D

 48 50  0  0  0  0  0  0  0  0999 V2000
    0.1980   -1.2520    1.7897 O   0  0  0  0  0  0  0  0  0  0  0  0
    0.2327   -1.4750    0.5860 C   0  0  0  0  0  0  0  0  0  0  0  0
   -0.8929   -1.6527   -0.1908 N   0  0  0  0  0  0  0  0  0  0  0  0
   -2.2294   -1.5649    0.3762 C   0  0  0  0  0  0  0  0  0  0  0  0
   -2.6655   -0.1107    0.6431 C   0  0  0  0  0  0  0  0  0  0  0  0
   -4.0647    0.0128    1.0899 N   0  0  0  0  0  0  0  0  0  0  0  0
   -4.3433    1.3561    1.6011 C   0  0  0  0  0  0  0  0  0  0  0  0
   -5.7001    1.3862    2.3148 C   0  0  0  0  0  0  0  0  0  0  0  0
   -6.7678    0.5370    1.6226 C   0  0  0  0  0  0  0  0  0  0  0  0
   -6.4014    0.2825    0.1690 C   0  0  0  0  0  0  0  0  0  0  0  0
   -5.0256   -0.3884    0.0490 C   0  0  0  0  0  0  0  0  0  0  0  0
    1.5370   -1.5216   -0.1284 C   0  0  0  0  0  0  0  0  0  0  0  0
    1.7269   -2.3144   -1.2691 C   0  0  0  0  0  0  0  0  0  0  0  0
    2.9706   -2.3388   -1.9044 C   0  0  0  0  0  0  0  0  0  0  0  0
    4.0250   -1.5733   -1.4052 C   0  0  0  0  0  0  0  0  0  0  0  0
    3.8336   -0.7778   -0.2717 C   0  0  0  0  0  0  0  0  0  0  0  0
    4.8445   -0.0342    0.2948 O   0  0  0  0  0  0  0  0  0  0  0  0
    5.6220    0.7200   -0.5540 C   0  0  0  0  0  0  0  0  0  0  0  0
    7.0056    0.6298   -0.4010 C   0  0  0  0  0  0  0  0  0  0  0  0
    7.8451    1.3931   -1.2129 C   0  0  0  0  0  0  0  0  0  0  0  0
    7.2992    2.2562   -2.1639 C   0  0  0  0  0  0  0  0  0  0  0  0
    5.9143    2.3635   -2.2993 C   0  0  0  0  0  0  0  0  0  0  0  0
    5.0723    1.6010   -1.4886 C   0  0  0  0  0  0  0  0  0  0  0  0
    2.6014   -0.7693    0.3813 C   0  0  0  0  0  0  0  0  0  0  0  0
   -0.8081   -1.6264   -1.1972 H   0  0  0  0  0  0  0  0  0  0  0  0
   -2.8931   -2.0532   -0.3439 H   0  0  0  0  0  0  0  0  0  0  0  0
   -2.2534   -2.1411    1.3086 H   0  0  0  0  0  0  0  0  0  0  0  0
   -2.0024    0.2947    1.4178 H   0  0  0  0  0  0  0  0  0  0  0  0
   -2.4956    0.4995   -0.2538 H   0  0  0  0  0  0  0  0  0  0  0  0
   -3.5802    1.6657    2.3258 H   0  0  0  0  0  0  0  0  0  0  0  0
   -4.3236    2.0930    0.7877 H   0  0  0  0  0  0  0  0  0  0  0  0
   -5.5889    1.0377    3.3493 H   0  0  0  0  0  0  0  0  0  0  0  0
   -6.0402    2.4273    2.3740 H   0  0  0  0  0  0  0  0  0  0  0  0
   -7.7441    1.0291    1.6943 H   0  0  0  0  0  0  0  0  0  0  0  0
   -6.8620   -0.4239    2.1441 H   0  0  0  0  0  0  0  0  0  0  0  0
   -6.3920    1.2378   -0.3710 H   0  0  0  0  0  0  0  0  0  0  0  0
   -7.1622   -0.3445   -0.3092 H   0  0  0  0  0  0  0  0  0  0  0  0
   -5.1616   -1.4747    0.1140 H   0  0  0  0  0  0  0  0  0  0  0  0
   -4.6415   -0.1737   -0.9566 H   0  0  0  0  0  0  0  0  0  0  0  0
    0.9299   -2.9457   -1.6518 H   0  0  0  0  0  0  0  0  0  0  0  0
    3.1248   -2.9667   -2.7787 H   0  0  0  0  0  0  0  0  0  0  0  0
    4.9952   -1.6141   -1.8940 H   0  0  0  0  0  0  0  0  0  0  0  0
    7.4277   -0.0363    0.3463 H   0  0  0  0  0  0  0  0  0  0  0  0
    8.9238    1.3190   -1.1012 H   0  0  0  0  0  0  0  0  0  0  0  0
    7.9540    2.8532   -2.7938 H   0  0  0  0  0  0  0  0  0  0  0  0
    5.4913    3.0466   -3.0313 H   0  0  0  0  0  0  0  0  0  0  0  0
    3.9952    1.7039   -1.5841 H   0  0  0  0  0  0  0  0  0  0  0  0
    2.4695   -0.1721    1.2810 H   0  0  0  0  0  0  0  0  0  0  0  0
  1  2  2  0
  2  3  1  0
  3  4  1  0
  4  5  1  0
  5  6  1  0
  6  7  1  0
  7  8  1  0
  8  9  1  0
  9 10  1  0
 10 11  1  0
  2 12  1  0
 12 13  2  0
 13 14  1  0
 14 15  2  0
 15 16  1  0
 16 17  1  0
 17 18  1  0
 18 19  2  0
 19 20  1  0
 20 21  2  0
 21 22  1  0
 22 23  2  0
 16 24  2  0
 11  6  1  0
 24 12  1  0
 23 18  1  0
  3 25  1  0
  4 26  1  0
  4 27  1  0
  5 28  1  0
  5 29  1  0
  7 30  1  0
  7 31  1  0
  8 32  1  0
  8 33  1  0
  9 34  1  0
  9 35  1  0
 10 36  1  0
 10 37  1  0
 11 38  1  0
 11 39  1  0
 13 40  1  0
 14 41  1  0
 15 42  1  0
 19 43  1  0
 20 44  1  0
 21 45  1  0
 22 46  1  0
 23 47  1  0
 24 48  1  0
M  END
>  <Unnamed: 0>  (31) 
143

>  <ID>  (31) 
TRAIN_0143

>  <Canonical_Smiles>  (31) 
O=C(NCCN1CCCCC1)c2cccc(Oc3ccccc3)c2

>  <Inhibition>  (31) 
31.4

>  <TDC_conf_true_inhibitor>  (31) 
0

>  <TDC_conf_non_inhibitor>  (31) 
1

>  <split>  (31) 
1

$$$$
31
     RDKit          3D

 58 60  0  0  0  0  0  0  0  0999 V2000
    5.7300    3.1175    0.8367 C   0  0  0  0  0  0  0  0  0  0  0  0
    5.2406    2.6366   -0.4591 N   0  0  0  0  0  0  0  0  0  0  0  0
    4.8082    3.7793   -1.2700 C   0  0  0  0  0  0  0  0  0  0  0  0
    4.1340    1.6807   -0.2474 C   0  0  0  0  0  0  0  0  0  0  0  0
    3.7071    0.9348   -1.5274 C   0  0  0  0  0  0  0  0  0  0  0  0
    2.7683   -0.1370   -1.2533 N   0  0  0  0  0  0  0  0  0  0  0  0
    1.4457    0.1267   -0.9695 C   0  0  0  0  0  0  0  0  0  0  0  0
    0.9653    1.2532   -1.0128 O   0  0  0  0  0  0  0  0  0  0  0  0
    0.6802   -1.0444   -0.5462 C   0  0  0  0  0  0  0  0  0  0  0  0
    0.7187   -2.3205   -1.1070 C   0  0  0  0  0  0  0  0  0  0  0  0
    1.4699   -2.8188   -2.2979 C   0  0  0  0  0  0  0  0  0  0  0  0
   -0.1355   -3.1214   -0.3736 N   0  0  0  0  0  0  0  0  0  0  0  0
   -0.3401   -4.5507   -0.5613 C   0  0  0  0  0  0  0  0  0  0  0  0
   -1.6517   -4.8555   -1.2251 C   0  0  0  0  0  0  0  0  0  0  0  0
   -2.6588   -5.2694   -0.6699 O   0  0  0  0  0  0  0  0  0  0  0  0
   -1.6455   -4.6446   -2.5569 O   0  0  0  0  0  0  0  0  0  0  0  0
   -0.7618   -2.3810    0.6124 C   0  0  0  0  0  0  0  0  0  0  0  0
   -1.7069   -2.7526    1.5811 C   0  0  0  0  0  0  0  0  0  0  0  0
   -2.1658   -1.7712    2.4653 C   0  0  0  0  0  0  0  0  0  0  0  0
   -1.7164   -0.4545    2.3850 C   0  0  0  0  0  0  0  0  0  0  0  0
   -2.2110    0.4640    3.3537 N   0  0  0  0  0  0  0  0  0  0  0  0
   -2.6586    2.0390    2.9695 S   0  0  0  0  0  6  0  0  0  0  0  0
   -1.4962    2.7870    2.5506 O   0  0  0  0  0  0  0  0  0  0  0  0
   -3.4429    2.4909    4.1040 O   0  0  0  0  0  0  0  0  0  0  0  0
   -3.7825    1.8320    1.6255 C   0  0  0  0  0  0  0  0  0  0  0  0
   -5.1076    1.4605    1.8945 C   0  0  0  0  0  0  0  0  0  0  0  0
   -6.0108    1.3045    0.8413 C   0  0  0  0  0  0  0  0  0  0  0  0
   -5.5961    1.5258   -0.4727 C   0  0  0  0  0  0  0  0  0  0  0  0
   -4.2806    1.9125   -0.7319 C   0  0  0  0  0  0  0  0  0  0  0  0
   -3.3795    2.0720    0.3190 C   0  0  0  0  0  0  0  0  0  0  0  0
   -2.1316    2.4490    0.0212 F   0  0  0  0  0  0  0  0  0  0  0  0
   -0.7577   -0.1046    1.4306 C   0  0  0  0  0  0  0  0  0  0  0  0
   -0.2799   -1.0757    0.5173 C   0  0  0  0  0  0  0  0  0  0  0  0
    6.1091    2.2837    1.4381 H   0  0  0  0  0  0  0  0  0  0  0  0
    6.5703    3.8076    0.6997 H   0  0  0  0  0  0  0  0  0  0  0  0
    4.9502    3.6314    1.4105 H   0  0  0  0  0  0  0  0  0  0  0  0
    4.5415    3.4663   -2.2839 H   0  0  0  0  0  0  0  0  0  0  0  0
    5.6258    4.5003   -1.3821 H   0  0  0  0  0  0  0  0  0  0  0  0
    3.9511    4.3001   -0.8288 H   0  0  0  0  0  0  0  0  0  0  0  0
    3.2677    2.1793    0.2074 H   0  0  0  0  0  0  0  0  0  0  0  0
    4.4624    0.9189    0.4730 H   0  0  0  0  0  0  0  0  0  0  0  0
    3.2388    1.6207   -2.2405 H   0  0  0  0  0  0  0  0  0  0  0  0
    4.5764    0.4765   -2.0103 H   0  0  0  0  0  0  0  0  0  0  0  0
    3.1324   -1.0424   -0.9931 H   0  0  0  0  0  0  0  0  0  0  0  0
    1.7704   -1.9960   -2.9536 H   0  0  0  0  0  0  0  0  0  0  0  0
    0.8585   -3.4920   -2.9056 H   0  0  0  0  0  0  0  0  0  0  0  0
    2.3708   -3.3535   -1.9806 H   0  0  0  0  0  0  0  0  0  0  0  0
   -0.3091   -5.0303    0.4232 H   0  0  0  0  0  0  0  0  0  0  0  0
    0.4829   -4.9781   -1.1403 H   0  0  0  0  0  0  0  0  0  0  0  0
   -2.5634   -4.8414   -2.8420 H   0  0  0  0  0  0  0  0  0  0  0  0
   -2.0841   -3.7685    1.6554 H   0  0  0  0  0  0  0  0  0  0  0  0
   -2.8949   -2.0593    3.2185 H   0  0  0  0  0  0  0  0  0  0  0  0
   -2.7245    0.1009    4.1538 H   0  0  0  0  0  0  0  0  0  0  0  0
   -5.4414    1.2948    2.9166 H   0  0  0  0  0  0  0  0  0  0  0  0
   -7.0395    1.0146    1.0450 H   0  0  0  0  0  0  0  0  0  0  0  0
   -6.2976    1.4049   -1.2944 H   0  0  0  0  0  0  0  0  0  0  0  0
   -3.9461    2.0926   -1.7504 H   0  0  0  0  0  0  0  0  0  0  0  0
   -0.3580    0.9047    1.3747 H   0  0  0  0  0  0  0  0  0  0  0  0
  1  2  1  0
  2  3  1  0
  2  4  1  0
  4  5  1  0
  5  6  1  0
  6  7  1  0
  7  8  2  0
  7  9  1  0
  9 10  2  0
 10 11  1  0
 10 12  1  0
 12 13  1  0
 13 14  1  0
 14 15  2  0
 14 16  1  0
 12 17  1  0
 17 18  2  0
 18 19  1  0
 19 20  2  0
 20 21  1  0
 21 22  1  0
 22 23  2  0
 22 24  2  0
 22 25  1  0
 25 26  2  0
 26 27  1  0
 27 28  2  0
 28 29  1  0
 29 30  2  0
 30 31  1  0
 20 32  1  0
 32 33  2  0
 33  9  1  0
 33 17  1  0
 30 25  1  0
  1 34  1  0
  1 35  1  0
  1 36  1  0
  3 37  1  0
  3 38  1  0
  3 39  1  0
  4 40  1  0
  4 41  1  0
  5 42  1  0
  5 43  1  0
  6 44  1  0
 11 45  1  0
 11 46  1  0
 11 47  1  0
 13 48  1  0
 13 49  1  0
 16 50  1  0
 18 51  1  0
 19 52  1  0
 21 53  1  0
 26 54  1  0
 27 55  1  0
 28 56  1  0
 29 57  1  0
 32 58  1  0
M  END
>  <Unnamed: 0>  (32) 
157

>  <ID>  (32) 
TRAIN_0157

>  <Canonical_Smiles>  (32) 
CN(C)CCNC(=O)c1c(C)n(CC(=O)O)c2ccc(NS(=O)(=O)c3ccccc3F)cc12

>  <Inhibition>  (32) 
30.7

>  <TDC_conf_true_inhibitor>  (32) 
0

>  <TDC_conf_non_inhibitor>  (32) 
1

>  <split>  (32) 
1

$$$$
32
     RDKit          3D

 60 62  0  0  0  0  0  0  0  0999 V2000
   -5.7313   -2.7790   -0.5260 C   0  0  0  0  0  0  0  0  0  0  0  0
   -5.5005   -1.3416   -0.9516 C   0  0  0  0  0  0  0  0  0  0  0  0
   -4.2497   -0.8691   -0.4307 O   0  0  0  0  0  0  0  0  0  0  0  0
   -4.2794   -0.3312    0.8171 C   0  0  0  0  0  0  0  0  0  0  0  0
   -5.2839   -0.2599    1.5185 O   0  0  0  0  0  0  0  0  0  0  0  0
   -2.9257    0.1288    1.2959 C   0  0  0  0  0  0  0  0  0  0  0  0
   -1.9077    0.2486    0.2524 N   0  0  0  0  0  0  0  0  0  0  0  0
   -1.6944    1.3515   -0.5639 C   0  0  0  0  0  0  0  0  0  0  0  0
   -0.5333    1.0846   -1.2755 C   0  0  0  0  0  0  0  0  0  0  0  0
   -0.0718   -0.2114   -0.9451 C   0  0  0  0  0  0  0  0  0  0  0  0
    1.0194   -0.9915   -1.3770 C   0  0  0  0  0  0  0  0  0  0  0  0
    1.1987   -2.2702   -0.8422 C   0  0  0  0  0  0  0  0  0  0  0  0
    2.3304   -3.0334   -1.2457 N   0  0  0  0  0  0  0  0  0  0  0  0
    3.5692   -3.3138   -0.1311 S   0  0  0  0  0  6  0  0  0  0  0  0
    3.0402   -4.0184    1.0168 O   0  0  0  0  0  0  0  0  0  0  0  0
    4.6809   -3.8467   -0.8910 O   0  0  0  0  0  0  0  0  0  0  0  0
    4.0188   -1.6722    0.3871 C   0  0  0  0  0  0  0  0  0  0  0  0
    3.4559   -1.1324    1.5437 C   0  0  0  0  0  0  0  0  0  0  0  0
    3.8041    0.1599    1.9392 C   0  0  0  0  0  0  0  0  0  0  0  0
    4.7245    0.9051    1.1915 C   0  0  0  0  0  0  0  0  0  0  0  0
    5.1221    2.1817    1.5032 O   0  0  0  0  0  0  0  0  0  0  0  0
    4.5376    2.7963    2.6425 C   0  0  0  0  0  0  0  0  0  0  0  0
    5.3130    0.3392    0.0392 C   0  0  0  0  0  0  0  0  0  0  0  0
    6.2094    1.1336   -0.6324 O   0  0  0  0  0  0  0  0  0  0  0  0
    6.9722    0.5349   -1.6710 C   0  0  0  0  0  0  0  0  0  0  0  0
    4.9565   -0.9520   -0.3597 C   0  0  0  0  0  0  0  0  0  0  0  0
    0.3121   -2.7733    0.1039 C   0  0  0  0  0  0  0  0  0  0  0  0
   -0.7778   -2.0148    0.5433 C   0  0  0  0  0  0  0  0  0  0  0  0
   -0.9494   -0.7269    0.0074 C   0  0  0  0  0  0  0  0  0  0  0  0
   -2.4815    2.5638   -0.6938 C   0  0  0  0  0  0  0  0  0  0  0  0
   -2.1166    3.5755   -1.2780 O   0  0  0  0  0  0  0  0  0  0  0  0
   -3.7002    2.4145   -0.1095 O   0  0  0  0  0  0  0  0  0  0  0  0
   -4.5629    3.5516   -0.2348 C   0  0  0  0  0  0  0  0  0  0  0  0
   -5.8788    3.2181    0.4407 C   0  0  0  0  0  0  0  0  0  0  0  0
   -5.8041   -2.8591    0.5632 H   0  0  0  0  0  0  0  0  0  0  0  0
   -6.6517   -3.1715   -0.9675 H   0  0  0  0  0  0  0  0  0  0  0  0
   -4.8924   -3.4111   -0.8362 H   0  0  0  0  0  0  0  0  0  0  0  0
   -5.4336   -1.2863   -2.0430 H   0  0  0  0  0  0  0  0  0  0  0  0
   -6.3299   -0.6934   -0.6464 H   0  0  0  0  0  0  0  0  0  0  0  0
   -2.5655   -0.5810    2.0464 H   0  0  0  0  0  0  0  0  0  0  0  0
   -3.0112    1.1027    1.7872 H   0  0  0  0  0  0  0  0  0  0  0  0
   -0.0836    1.7623   -1.9924 H   0  0  0  0  0  0  0  0  0  0  0  0
    1.7105   -0.5864   -2.1090 H   0  0  0  0  0  0  0  0  0  0  0  0
    2.6901   -2.8846   -2.1869 H   0  0  0  0  0  0  0  0  0  0  0  0
    2.7404   -1.7019    2.1334 H   0  0  0  0  0  0  0  0  0  0  0  0
    3.3409    0.5571    2.8363 H   0  0  0  0  0  0  0  0  0  0  0  0
    4.7908    2.2516    3.5581 H   0  0  0  0  0  0  0  0  0  0  0  0
    4.9550    3.8040    2.7301 H   0  0  0  0  0  0  0  0  0  0  0  0
    3.4533    2.8949    2.5264 H   0  0  0  0  0  0  0  0  0  0  0  0
    6.3346    0.2660   -2.5194 H   0  0  0  0  0  0  0  0  0  0  0  0
    7.5322   -0.3323   -1.3054 H   0  0  0  0  0  0  0  0  0  0  0  0
    7.6973    1.2751   -2.0226 H   0  0  0  0  0  0  0  0  0  0  0  0
    5.3889   -1.4103   -1.2429 H   0  0  0  0  0  0  0  0  0  0  0  0
    0.4550   -3.7734    0.5091 H   0  0  0  0  0  0  0  0  0  0  0  0
   -1.4629   -2.4322    1.2744 H   0  0  0  0  0  0  0  0  0  0  0  0
   -4.7364    3.7707   -1.2943 H   0  0  0  0  0  0  0  0  0  0  0  0
   -4.1042    4.4186    0.2535 H   0  0  0  0  0  0  0  0  0  0  0  0
   -6.5754    4.0584    0.3748 H   0  0  0  0  0  0  0  0  0  0  0  0
   -5.7190    2.9723    1.4959 H   0  0  0  0  0  0  0  0  0  0  0  0
   -6.3386    2.3399   -0.0244 H   0  0  0  0  0  0  0  0  0  0  0  0
  1  2  1  0
  2  3  1  0
  3  4  1  0
  4  5  2  0
  4  6  1  0
  6  7  1  0
  7  8  1  0
  8  9  2  0
  9 10  1  0
 10 11  2  0
 11 12  1  0
 12 13  1  0
 13 14  1  0
 14 15  2  0
 14 16  2  0
 14 17  1  0
 17 18  2  0
 18 19  1  0
 19 20  2  0
 20 21  1  0
 21 22  1  0
 20 23  1  0
 23 24  1  0
 24 25  1  0
 23 26  2  0
 12 27  2  0
 27 28  1  0
 28 29  2  0
  8 30  1  0
 30 31  2  0
 30 32  1  0
 32 33  1  0
 33 34  1  0
 29  7  1  0
 29 10  1  0
 26 17  1  0
  1 35  1  0
  1 36  1  0
  1 37  1  0
  2 38  1  0
  2 39  1  0
  6 40  1  0
  6 41  1  0
  9 42  1  0
 11 43  1  0
 13 44  1  0
 18 45  1  0
 19 46  1  0
 22 47  1  0
 22 48  1  0
 22 49  1  0
 25 50  1  0
 25 51  1  0
 25 52  1  0
 26 53  1  0
 27 54  1  0
 28 55  1  0
 33 56  1  0
 33 57  1  0
 34 58  1  0
 34 59  1  0
 34 60  1  0
M  END
>  <Unnamed: 0>  (33) 
388

>  <ID>  (33) 
TRAIN_0388

>  <Canonical_Smiles>  (33) 
CCOC(=O)Cn1c(cc2cc(NS(=O)(=O)c3ccc(OC)c(OC)c3)ccc12)C(=O)OCC

>  <Inhibition>  (33) 
90.9

>  <TDC_conf_true_inhibitor>  (33) 
1

>  <TDC_conf_non_inhibitor>  (33) 
0

>  <split>  (33) 
1

$$$$
33
     RDKit          3D

 38 39  0  0  0  0  0  0  0  0999 V2000
    2.3828    2.2596    0.5785 C   0  0  0  0  0  0  0  0  0  0  0  0
    3.2970    1.2015    0.0801 C   0  0  0  0  0  0  0  0  0  0  0  0
    4.2089    1.5023   -0.8564 N   0  0  0  0  0  0  0  0  0  0  0  0
    4.8658    0.3497   -1.0553 N   0  0  0  0  0  0  0  0  0  0  0  0
    4.4083   -0.6891   -0.2937 C   0  0  0  0  0  0  0  0  0  0  0  0
    5.0017   -2.0435   -0.3635 C   0  0  0  0  0  0  0  0  0  0  0  0
    3.3742   -0.1653    0.4503 C   0  0  0  0  0  0  0  0  0  0  0  0
    2.4092   -1.0256    1.6231 S   0  0  0  0  0  0  0  0  0  0  0  0
    0.7421   -0.7143    1.0761 C   0  0  0  0  0  0  0  0  0  0  0  0
   -0.1995   -0.2379    1.9871 C   0  0  0  0  0  0  0  0  0  0  0  0
   -1.5154    0.0121    1.5814 C   0  0  0  0  0  0  0  0  0  0  0  0
   -1.9336   -0.2125    0.2557 C   0  0  0  0  0  0  0  0  0  0  0  0
   -0.9746   -0.7052   -0.6436 C   0  0  0  0  0  0  0  0  0  0  0  0
    0.3429   -0.9567   -0.2387 C   0  0  0  0  0  0  0  0  0  0  0  0
   -3.3879    0.0776   -0.1554 C   0  0  0  0  0  0  0  0  0  0  0  0
   -3.7081    1.5684    0.0878 C   0  0  0  0  0  0  0  0  0  0  0  0
   -3.6873   -0.2168   -1.6427 C   0  0  0  0  0  0  0  0  0  0  0  0
   -4.3481   -0.7920    0.6845 C   0  0  0  0  0  0  0  0  0  0  0  0
    2.7886    3.2581    0.3834 H   0  0  0  0  0  0  0  0  0  0  0  0
    2.2316    2.1728    1.6589 H   0  0  0  0  0  0  0  0  0  0  0  0
    1.4102    2.1885    0.0819 H   0  0  0  0  0  0  0  0  0  0  0  0
    5.6234    0.3443   -1.7301 H   0  0  0  0  0  0  0  0  0  0  0  0
    5.8165   -2.0901   -1.0934 H   0  0  0  0  0  0  0  0  0  0  0  0
    4.2454   -2.7783   -0.6574 H   0  0  0  0  0  0  0  0  0  0  0  0
    5.4064   -2.3351    0.6109 H   0  0  0  0  0  0  0  0  0  0  0  0
    0.0789   -0.0512    3.0216 H   0  0  0  0  0  0  0  0  0  0  0  0
   -2.2145    0.3881    2.3255 H   0  0  0  0  0  0  0  0  0  0  0  0
   -1.2214   -0.9076   -1.6823 H   0  0  0  0  0  0  0  0  0  0  0  0
    1.0521   -1.3412   -0.9682 H   0  0  0  0  0  0  0  0  0  0  0  0
   -3.0221    2.2155   -0.4715 H   0  0  0  0  0  0  0  0  0  0  0  0
   -4.7290    1.8104   -0.2303 H   0  0  0  0  0  0  0  0  0  0  0  0
   -3.6294    1.8422    1.1456 H   0  0  0  0  0  0  0  0  0  0  0  0
   -3.5184   -1.2720   -1.8872 H   0  0  0  0  0  0  0  0  0  0  0  0
   -3.0642    0.3923   -2.3080 H   0  0  0  0  0  0  0  0  0  0  0  0
   -4.7328    0.0066   -1.8869 H   0  0  0  0  0  0  0  0  0  0  0  0
   -4.2821   -0.5674    1.7547 H   0  0  0  0  0  0  0  0  0  0  0  0
   -4.1272   -1.8585    0.5579 H   0  0  0  0  0  0  0  0  0  0  0  0
   -5.3908   -0.6297    0.3871 H   0  0  0  0  0  0  0  0  0  0  0  0
  1  2  1  0
  2  3  2  0
  3  4  1  0
  4  5  1  0
  5  6  1  0
  5  7  2  0
  7  8  1  0
  8  9  1  0
  9 10  2  0
 10 11  1  0
 11 12  2  0
 12 13  1  0
 13 14  2  0
 12 15  1  0
 15 16  1  0
 15 17  1  0
 15 18  1  0
  7  2  1  0
 14  9  1  0
  1 19  1  0
  1 20  1  0
  1 21  1  0
  4 22  1  0
  6 23  1  0
  6 24  1  0
  6 25  1  0
 10 26  1  0
 11 27  1  0
 13 28  1  0
 14 29  1  0
 16 30  1  0
 16 31  1  0
 16 32  1  0
 17 33  1  0
 17 34  1  0
 17 35  1  0
 18 36  1  0
 18 37  1  0
 18 38  1  0
M  END
>  <Unnamed: 0>  (34) 
166

>  <ID>  (34) 
TRAIN_0166

>  <Canonical_Smiles>  (34) 
Cc1n[nH]c(C)c1Sc2ccc(cc2)C(C)(C)C

>  <Inhibition>  (34) 
30.4

>  <TDC_conf_true_inhibitor>  (34) 
1

>  <TDC_conf_non_inhibitor>  (34) 
0

>  <split>  (34) 
1

$$$$
34
     RDKit          3D

 64 67  0  0  0  0  0  0  0  0999 V2000
   11.2135    0.2206    1.9202 C   0  0  0  0  0  0  0  0  0  0  0  0
   11.3865    0.2909    0.4142 C   0  0  0  0  0  0  0  0  0  0  0  0
   10.3706   -0.4849   -0.2369 O   0  0  0  0  0  0  0  0  0  0  0  0
    9.1978    0.1598   -0.4686 C   0  0  0  0  0  0  0  0  0  0  0  0
    8.9380    1.3186   -0.1799 O   0  0  0  0  0  0  0  0  0  0  0  0
    8.2133   -0.7443   -1.1123 C   0  0  0  0  0  0  0  0  0  0  0  0
    6.9128   -0.2252   -1.5550 C   0  0  0  0  0  0  0  0  0  0  0  0
    5.8448    0.7055   -1.0989 C   0  0  0  0  0  0  0  0  0  0  0  0
    4.9081   -0.2523   -0.4914 N   0  0  0  0  0  0  0  0  0  0  0  0
    5.5411   -1.5809   -0.3875 C   0  0  0  0  0  0  0  0  0  0  0  0
    6.9877   -1.2046   -0.3411 C   0  0  0  0  0  0  0  0  0  0  0  0
    3.5514   -0.1952   -0.7208 C   0  0  0  0  0  0  0  0  0  0  0  0
    2.8906    1.0276   -0.8533 C   0  0  0  0  0  0  0  0  0  0  0  0
    1.5071    1.0690   -1.0519 C   0  0  0  0  0  0  0  0  0  0  0  0
    0.7937   -0.1237   -1.1014 C   0  0  0  0  0  0  0  0  0  0  0  0
    1.5123   -1.2999   -0.9672 C   0  0  0  0  0  0  0  0  0  0  0  0
    2.8548   -1.3524   -0.7683 N   0  0  0  0  0  0  0  0  0  0  0  0
   -0.6713   -0.2003   -1.3060 C   0  0  0  0  0  0  0  0  0  0  0  0
   -1.1796   -1.2285   -1.7381 O   0  0  0  0  0  0  0  0  0  0  0  0
   -1.4080    0.9150   -0.9614 N   0  0  0  0  0  0  0  0  0  0  0  0
   -2.8573    0.8971   -1.0348 C   0  0  0  0  0  0  0  0  0  0  0  0
   -3.5013    0.2029    0.1674 C   0  0  0  0  0  0  0  0  0  0  0  0
   -4.9492    0.1618    0.0517 N   0  0  0  0  0  0  0  0  0  0  0  0
   -5.7202    0.0197    1.1784 C   0  0  0  0  0  0  0  0  0  0  0  0
   -5.2434    0.0125    2.3093 O   0  0  0  0  0  0  0  0  0  0  0  0
   -7.0730   -0.1029    0.9332 N   0  0  0  0  0  0  0  0  0  0  0  0
   -7.7256    0.1552   -0.3551 C   0  0  0  0  0  0  0  0  0  0  0  0
   -9.1845    0.6166   -0.1822 C   0  0  0  0  0  0  0  0  0  0  0  0
  -10.0213   -0.3531    0.5506 N   0  0  0  0  0  0  0  0  0  0  0  0
  -11.2336    0.2881    1.0539 C   0  0  0  0  0  0  0  0  0  0  0  0
   -9.2746   -1.0399    1.6267 C   0  0  0  0  0  0  0  0  0  0  0  0
   -7.9673   -0.3543    2.0637 C   0  0  0  0  0  0  0  0  0  0  0  0
   11.2060   -0.8212    2.2583 H   0  0  0  0  0  0  0  0  0  0  0  0
   12.0232    0.7520    2.4290 H   0  0  0  0  0  0  0  0  0  0  0  0
   10.2593    0.6618    2.2273 H   0  0  0  0  0  0  0  0  0  0  0  0
   11.3868    1.3276    0.0583 H   0  0  0  0  0  0  0  0  0  0  0  0
   12.3509   -0.1459    0.1337 H   0  0  0  0  0  0  0  0  0  0  0  0
    8.6741   -1.4983   -1.7448 H   0  0  0  0  0  0  0  0  0  0  0  0
    6.6238   -0.6087   -2.5354 H   0  0  0  0  0  0  0  0  0  0  0  0
    5.4200    1.2414   -1.9546 H   0  0  0  0  0  0  0  0  0  0  0  0
    6.1970    1.4255   -0.3533 H   0  0  0  0  0  0  0  0  0  0  0  0
    5.2358   -2.0908    0.5330 H   0  0  0  0  0  0  0  0  0  0  0  0
    5.3217   -2.2243   -1.2496 H   0  0  0  0  0  0  0  0  0  0  0  0
    7.1124   -0.8590    0.6927 H   0  0  0  0  0  0  0  0  0  0  0  0
    3.4418    1.9600   -0.7867 H   0  0  0  0  0  0  0  0  0  0  0  0
    1.0236    2.0315   -1.1799 H   0  0  0  0  0  0  0  0  0  0  0  0
    1.0218   -2.2696   -1.0066 H   0  0  0  0  0  0  0  0  0  0  0  0
   -0.9795    1.6432   -0.4061 H   0  0  0  0  0  0  0  0  0  0  0  0
   -3.1909    1.9388   -1.0950 H   0  0  0  0  0  0  0  0  0  0  0  0
   -3.1588    0.3996   -1.9641 H   0  0  0  0  0  0  0  0  0  0  0  0
   -3.2196    0.7249    1.0896 H   0  0  0  0  0  0  0  0  0  0  0  0
   -3.1520   -0.8316    0.2617 H   0  0  0  0  0  0  0  0  0  0  0  0
   -5.2959   -0.3743   -0.7297 H   0  0  0  0  0  0  0  0  0  0  0  0
   -7.1654    0.9179   -0.9067 H   0  0  0  0  0  0  0  0  0  0  0  0
   -7.6853   -0.7763   -0.9323 H   0  0  0  0  0  0  0  0  0  0  0  0
   -9.1724    1.5821    0.3427 H   0  0  0  0  0  0  0  0  0  0  0  0
   -9.6246    0.7901   -1.1711 H   0  0  0  0  0  0  0  0  0  0  0  0
  -11.0130    1.0525    1.8083 H   0  0  0  0  0  0  0  0  0  0  0  0
  -11.7895    0.7596    0.2353 H   0  0  0  0  0  0  0  0  0  0  0  0
  -11.9039   -0.4551    1.5004 H   0  0  0  0  0  0  0  0  0  0  0  0
   -9.9053   -1.2171    2.5068 H   0  0  0  0  0  0  0  0  0  0  0  0
   -9.0178   -2.0353    1.2402 H   0  0  0  0  0  0  0  0  0  0  0  0
   -7.4552   -0.9744    2.8084 H   0  0  0  0  0  0  0  0  0  0  0  0
   -8.1829    0.6135    2.5329 H   0  0  0  0  0  0  0  0  0  0  0  0
  1  2  1  0
  2  3  1  0
  3  4  1  0
  4  5  2  0
  4  6  1  0
  6  7  1  0
  7  8  1  0
  8  9  1  0
  9 10  1  0
 10 11  1  0
  9 12  1  0
 12 13  2  0
 13 14  1  0
 14 15  2  0
 15 16  1  0
 16 17  2  0
 15 18  1  0
 18 19  2  0
 18 20  1  0
 20 21  1  0
 21 22  1  0
 22 23  1  0
 23 24  1  0
 24 25  2  0
 24 26  1  0
 26 27  1  0
 27 28  1  0
 28 29  1  0
 29 30  1  0
 29 31  1  0
 31 32  1  0
 11  6  1  0
 11  7  1  0
 17 12  1  0
 32 26  1  0
  1 33  1  0
  1 34  1  0
  1 35  1  0
  2 36  1  0
  2 37  1  0
  6 38  1  0
  7 39  1  0
  8 40  1  0
  8 41  1  0
 10 42  1  0
 10 43  1  0
 11 44  1  0
 13 45  1  0
 14 46  1  0
 16 47  1  0
 20 48  1  0
 21 49  1  0
 21 50  1  0
 22 51  1  0
 22 52  1  0
 23 53  1  0
 27 54  1  0
 27 55  1  0
 28 56  1  0
 28 57  1  0
 30 58  1  0
 30 59  1  0
 30 60  1  0
 31 61  1  0
 31 62  1  0
 32 63  1  0
 32 64  1  0
M  END
>  <Unnamed: 0>  (35) 
174

>  <ID>  (35) 
TRAIN_0174

>  <Canonical_Smiles>  (35) 
CCOC(=O)C1C2CN(CC12)c3ccc(cn3)C(=O)NCCNC(=O)N4CCN(C)CC4

>  <Inhibition>  (35) 
0.0

>  <TDC_conf_true_inhibitor>  (35) 
0

>  <TDC_conf_non_inhibitor>  (35) 
1

>  <split>  (35) 
1

$$$$
35
     RDKit          3D

 45 49  0  0  0  0  0  0  0  0999 V2000
    4.0797   -1.6604   -0.7296 O   0  0  0  0  0  0  0  0  0  0  0  0
    3.8673   -0.5520   -0.2587 C   0  0  0  0  0  0  0  0  0  0  0  0
    4.8395    0.3399    0.1677 N   0  0  0  0  0  0  0  0  0  0  0  0
    6.2310    0.1184    0.2478 C   0  0  0  0  0  0  0  0  0  0  0  0
    7.0391    1.2233    0.5491 C   0  0  0  0  0  0  0  0  0  0  0  0
    8.4258    1.0859    0.6562 C   0  0  0  0  0  0  0  0  0  0  0  0
    9.0179   -0.1595    0.4677 C   0  0  0  0  0  0  0  0  0  0  0  0
    8.2228   -1.2648    0.1751 C   0  0  0  0  0  0  0  0  0  0  0  0
    6.8349   -1.1273    0.0679 C   0  0  0  0  0  0  0  0  0  0  0  0
    2.6035   -0.0085   -0.0750 N   0  0  0  0  0  0  0  0  0  0  0  0
    1.3746   -0.5765   -0.4777 C   0  0  0  0  0  0  0  0  0  0  0  0
    1.2403   -1.7078   -1.2760 C   0  0  0  0  0  0  0  0  0  0  0  0
    0.0468   -2.2235   -1.6616 N   0  0  0  0  0  0  0  0  0  0  0  0
   -1.0655   -1.5828   -1.2305 C   0  0  0  0  0  0  0  0  0  0  0  0
   -1.0591   -0.4424   -0.4319 C   0  0  0  0  0  0  0  0  0  0  0  0
    0.1969    0.0576   -0.0605 C   0  0  0  0  0  0  0  0  0  0  0  0
   -2.2937    0.2030   -0.0017 C   0  0  0  0  0  0  0  0  0  0  0  0
   -3.4548   -0.3541   -0.4607 O   0  0  0  0  0  0  0  0  0  0  0  0
   -4.4924    0.3767    0.0395 C   0  0  0  0  0  0  0  0  0  0  0  0
   -4.0076    1.4105    0.8248 C   0  0  0  0  0  0  0  0  0  0  0  0
   -4.9329    2.2645    1.4211 C   0  0  0  0  0  0  0  0  0  0  0  0
   -6.2652    2.0764    1.2281 N   0  0  0  0  0  0  0  0  0  0  0  0
   -6.7128    1.0626    0.4592 C   0  0  0  0  0  0  0  0  0  0  0  0
   -8.0756    0.8791    0.2689 C   0  0  0  0  0  0  0  0  0  0  0  0
   -8.5790   -0.1632   -0.5234 C   0  0  0  0  0  0  0  0  0  0  0  0
   -7.7097   -1.0550   -1.1494 C   0  0  0  0  0  0  0  0  0  0  0  0
   -6.3372   -0.9055   -0.9840 C   0  0  0  0  0  0  0  0  0  0  0  0
   -5.8574    0.1497   -0.1831 C   0  0  0  0  0  0  0  0  0  0  0  0
   -2.5921    1.2935    0.7943 C   0  0  0  0  0  0  0  0  0  0  0  0
    4.5421    1.2938    0.2986 H   0  0  0  0  0  0  0  0  0  0  0  0
    6.6049    2.2075    0.7014 H   0  0  0  0  0  0  0  0  0  0  0  0
    9.0427    1.9506    0.8863 H   0  0  0  0  0  0  0  0  0  0  0  0
   10.0959   -0.2711    0.5493 H   0  0  0  0  0  0  0  0  0  0  0  0
    8.6788   -2.2410    0.0296 H   0  0  0  0  0  0  0  0  0  0  0  0
    6.2540   -2.0178   -0.1519 H   0  0  0  0  0  0  0  0  0  0  0  0
    2.5511    0.7998    0.5250 H   0  0  0  0  0  0  0  0  0  0  0  0
    2.0925   -2.2586   -1.6601 H   0  0  0  0  0  0  0  0  0  0  0  0
   -1.9956   -2.0371   -1.5639 H   0  0  0  0  0  0  0  0  0  0  0  0
    0.2576    0.9468    0.5596 H   0  0  0  0  0  0  0  0  0  0  0  0
   -4.6539    3.1006    2.0523 H   0  0  0  0  0  0  0  0  0  0  0  0
   -8.7687    1.5655    0.7499 H   0  0  0  0  0  0  0  0  0  0  0  0
   -9.6537   -0.2735   -0.6479 H   0  0  0  0  0  0  0  0  0  0  0  0
   -8.1022   -1.8620   -1.7628 H   0  0  0  0  0  0  0  0  0  0  0  0
   -5.6489   -1.5942   -1.4667 H   0  0  0  0  0  0  0  0  0  0  0  0
   -1.8816    1.9329    1.2977 H   0  0  0  0  0  0  0  0  0  0  0  0
  1  2  2  0
  2  3  1  0
  3  4  1  0
  4  5  2  0
  5  6  1  0
  6  7  2  0
  7  8  1  0
  8  9  2  0
  2 10  1  0
 10 11  1  0
 11 12  2  0
 12 13  1  0
 13 14  2  0
 14 15  1  0
 15 16  2  0
 15 17  1  0
 17 18  1  0
 18 19  1  0
 19 20  2  0
 20 21  1  0
 21 22  2  0
 22 23  1  0
 23 24  2  0
 24 25  1  0
 25 26  2  0
 26 27  1  0
 27 28  2  0
 20 29  1  0
  9  4  1  0
 16 11  1  0
 29 17  2  0
 28 19  1  0
 28 23  1  0
  3 30  1  0
  5 31  1  0
  6 32  1  0
  7 33  1  0
  8 34  1  0
  9 35  1  0
 10 36  1  0
 12 37  1  0
 14 38  1  0
 16 39  1  0
 21 40  1  0
 24 41  1  0
 25 42  1  0
 26 43  1  0
 27 44  1  0
 29 45  1  0
M  END
>  <Unnamed: 0>  (36) 
178

>  <ID>  (36) 
TRAIN_0178

>  <Canonical_Smiles>  (36) 
O=C(Nc1ccccc1)Nc2cncc(c2)c3oc4c(cnc5ccccc45)c3

>  <Inhibition>  (36) 
1.09

>  <TDC_conf_true_inhibitor>  (36) 
0

>  <TDC_conf_non_inhibitor>  (36) 
1

>  <split>  (36) 
1

$$$$
36
     RDKit          3D

 65 68  0  0  0  0  0  0  0  0999 V2000
  -10.0603   -1.2030    2.1978 C   0  0  0  0  0  0  0  0  0  0  0  0
   -9.3926   -0.6053    0.9500 C   0  0  0  0  0  0  0  0  0  0  0  0
  -10.0007    0.7761    0.6849 C   0  0  0  0  0  0  0  0  0  0  0  0
   -9.6093   -1.5626   -0.2274 C   0  0  0  0  0  0  0  0  0  0  0  0
   -7.9873   -0.5051    1.2968 O   0  0  0  0  0  0  0  0  0  0  0  0
   -7.0868   -0.0173    0.4111 C   0  0  0  0  0  0  0  0  0  0  0  0
   -7.3361    0.3874   -0.7150 O   0  0  0  0  0  0  0  0  0  0  0  0
   -5.8405   -0.0403    0.9864 N   0  0  0  0  0  0  0  0  0  0  0  0
   -4.6971    0.0256    0.1788 N   0  0  0  0  0  0  0  0  0  0  0  0
   -4.4616    1.2305   -0.5978 C   0  0  0  0  0  0  0  0  0  0  0  0
   -2.9828    1.1972   -0.7832 C   0  0  0  0  0  0  0  0  0  0  0  0
   -2.1423    2.0187   -1.4990 C   0  0  0  0  0  0  0  0  0  0  0  0
   -0.7721    1.7368   -1.4489 C   0  0  0  0  0  0  0  0  0  0  0  0
   -0.2890    0.6519   -0.6876 C   0  0  0  0  0  0  0  0  0  0  0  0
   -1.1217   -0.1488    0.0285 N   0  0  0  0  0  0  0  0  0  0  0  0
   -2.4265    0.1540   -0.0617 C   0  0  0  0  0  0  0  0  0  0  0  0
   -3.5152   -0.5527    0.6428 C   0  0  0  0  0  0  0  0  0  0  0  0
   -3.4153   -1.4167    1.4957 O   0  0  0  0  0  0  0  0  0  0  0  0
    1.1498    0.3204   -0.5961 C   0  0  0  0  0  0  0  0  0  0  0  0
    2.0456    0.5603   -1.6519 C   0  0  0  0  0  0  0  0  0  0  0  0
    3.4064    0.2454   -1.5428 C   0  0  0  0  0  0  0  0  0  0  0  0
    3.9197   -0.3267   -0.3726 C   0  0  0  0  0  0  0  0  0  0  0  0
    3.0371   -0.5770    0.6836 C   0  0  0  0  0  0  0  0  0  0  0  0
    1.6777   -0.2629    0.5689 C   0  0  0  0  0  0  0  0  0  0  0  0
    5.3907   -0.6755   -0.2334 C   0  0  2  0  0  0  0  0  0  0  0  0
    6.2758    0.5861   -0.1906 C   0  0  0  0  0  0  0  0  0  0  0  0
    7.6510    0.3872   -0.8341 C   0  0  0  0  0  0  0  0  0  0  0  0
    8.2546   -1.0032   -0.5816 C   0  0  1  0  0  0  0  0  0  0  0  0
    8.6506   -1.2175    0.8929 C   0  0  0  0  0  0  0  0  0  0  0  0
    9.8030   -0.3486    1.3282 C   0  0  0  0  0  0  0  0  0  0  0  0
   10.5820    0.2655    0.6210 O   0  0  0  0  0  0  0  0  0  0  0  0
    9.9360   -0.3287    2.6691 O   0  0  0  0  0  0  0  0  0  0  0  0
    7.3011   -2.1198   -1.0624 C   0  0  0  0  0  0  0  0  0  0  0  0
    5.8621   -1.6585   -1.3130 C   0  0  0  0  0  0  0  0  0  0  0  0
   -9.6251   -2.1794    2.4416 H   0  0  0  0  0  0  0  0  0  0  0  0
  -11.1395   -1.3291    2.0614 H   0  0  0  0  0  0  0  0  0  0  0  0
   -9.8947   -0.5636    3.0729 H   0  0  0  0  0  0  0  0  0  0  0  0
  -11.0898    0.7192    0.5828 H   0  0  0  0  0  0  0  0  0  0  0  0
   -9.7629    1.4689    1.4997 H   0  0  0  0  0  0  0  0  0  0  0  0
   -9.6094    1.2248   -0.2326 H   0  0  0  0  0  0  0  0  0  0  0  0
  -10.6737   -1.7694   -0.3819 H   0  0  0  0  0  0  0  0  0  0  0  0
   -9.2167   -1.1549   -1.1638 H   0  0  0  0  0  0  0  0  0  0  0  0
   -9.0905   -2.5127   -0.0568 H   0  0  0  0  0  0  0  0  0  0  0  0
   -5.7520   -0.6251    1.8141 H   0  0  0  0  0  0  0  0  0  0  0  0
   -4.9896    1.1615   -1.5520 H   0  0  0  0  0  0  0  0  0  0  0  0
   -4.7667    2.1132   -0.0276 H   0  0  0  0  0  0  0  0  0  0  0  0
   -2.5177    2.8584   -2.0752 H   0  0  0  0  0  0  0  0  0  0  0  0
   -0.0837    2.3815   -1.9883 H   0  0  0  0  0  0  0  0  0  0  0  0
    1.6958    0.9809   -2.5915 H   0  0  0  0  0  0  0  0  0  0  0  0
    4.0610    0.4516   -2.3868 H   0  0  0  0  0  0  0  0  0  0  0  0
    3.3913   -1.0248    1.6097 H   0  0  0  0  0  0  0  0  0  0  0  0
    1.0203   -0.4806    1.4101 H   0  0  0  0  0  0  0  0  0  0  0  0
    5.5176   -1.1915    0.7288 H   0  0  0  0  0  0  0  0  0  0  0  0
    5.7930    1.4399   -0.6826 H   0  0  0  0  0  0  0  0  0  0  0  0
    6.4008    0.8911    0.8573 H   0  0  0  0  0  0  0  0  0  0  0  0
    7.5524    0.5280   -1.9187 H   0  0  0  0  0  0  0  0  0  0  0  0
    8.3266    1.1804   -0.4958 H   0  0  0  0  0  0  0  0  0  0  0  0
    9.1732   -1.0795   -1.1800 H   0  0  0  0  0  0  0  0  0  0  0  0
    7.7979   -1.0242    1.5524 H   0  0  0  0  0  0  0  0  0  0  0  0
    8.9717   -2.2550    1.0439 H   0  0  0  0  0  0  0  0  0  0  0  0
   10.7158    0.2456    2.8212 H   0  0  0  0  0  0  0  0  0  0  0  0
    7.2894   -2.9514   -0.3467 H   0  0  0  0  0  0  0  0  0  0  0  0
    7.6894   -2.5430   -1.9979 H   0  0  0  0  0  0  0  0  0  0  0  0
    5.8043   -1.1961   -2.3067 H   0  0  0  0  0  0  0  0  0  0  0  0
    5.2053   -2.5368   -1.3479 H   0  0  0  0  0  0  0  0  0  0  0  0
  1  2  1  0
  2  3  1  0
  2  4  1  0
  2  5  1  0
  5  6  1  0
  6  7  2  0
  6  8  1  0
  8  9  1  0
  9 10  1  0
 10 11  1  0
 11 12  2  0
 12 13  1  0
 13 14  2  0
 14 15  1  0
 15 16  2  0
 16 17  1  0
 17 18  2  0
 14 19  1  0
 19 20  2  0
 20 21  1  0
 21 22  2  0
 22 23  1  0
 23 24  2  0
 22 25  1  0
 25 26  1  0
 26 27  1  0
 27 28  1  0
 28 29  1  0
 29 30  1  0
 30 31  2  0
 30 32  1  0
 28 33  1  0
 33 34  1  0
 17  9  1  0
 16 11  1  0
 24 19  1  0
 34 25  1  0
  1 35  1  0
  1 36  1  0
  1 37  1  0
  3 38  1  0
  3 39  1  0
  3 40  1  0
  4 41  1  0
  4 42  1  0
  4 43  1  0
  8 44  1  0
 10 45  1  0
 10 46  1  0
 12 47  1  0
 13 48  1  0
 20 49  1  0
 21 50  1  0
 23 51  1  0
 24 52  1  0
 25 53  1  1
 26 54  1  0
 26 55  1  0
 27 56  1  0
 27 57  1  0
 28 58  1  6
 29 59  1  0
 29 60  1  0
 32 61  1  0
 33 62  1  0
 33 63  1  0
 34 64  1  0
 34 65  1  0
M  END
>  <Unnamed: 0>  (37) 
181

>  <ID>  (37) 
TRAIN_0181

>  <Canonical_Smiles>  (37) 
CC(C)(C)OC(=O)NN1Cc2ccc(nc2C1=O)c3ccc(cc3)[C@@H]4CC[C@@H](CC(=O)O)CC4

>  <Inhibition>  (37) 
0.0

>  <TDC_conf_true_inhibitor>  (37) 
0

>  <TDC_conf_non_inhibitor>  (37) 
1

>  <split>  (37) 
1

$$$$
37
     RDKit          3D

 45 46  0  0  0  0  0  0  0  0999 V2000
   -0.7581   -4.1444   -0.7832 C   0  0  0  0  0  0  0  0  0  0  0  0
   -0.0810   -2.9124   -0.5683 O   0  0  0  0  0  0  0  0  0  0  0  0
   -0.8297   -1.8549   -0.1058 C   0  0  0  0  0  0  0  0  0  0  0  0
   -2.1956   -1.9067    0.1870 C   0  0  0  0  0  0  0  0  0  0  0  0
   -2.8999   -0.7734    0.6535 C   0  0  0  0  0  0  0  0  0  0  0  0
   -4.3811   -0.9773    0.9358 C   0  0  0  0  0  0  0  0  0  0  0  0
   -5.2478    0.1918    1.0862 N   0  0  0  0  0  0  0  0  0  0  0  0
   -5.0135    1.2010    0.0619 C   0  0  0  0  0  0  0  0  0  0  0  0
   -3.9567    2.2251    0.4795 C   0  0  0  0  0  0  0  0  0  0  0  0
   -2.8398    1.6800    1.3704 C   0  0  0  0  0  0  0  0  0  0  0  0
   -2.1890    0.4278    0.8397 C   0  0  0  0  0  0  0  0  0  0  0  0
   -0.8110    0.4729    0.5455 C   0  0  0  0  0  0  0  0  0  0  0  0
   -0.1302   -0.6505    0.0743 C   0  0  0  0  0  0  0  0  0  0  0  0
    1.2433   -0.6530   -0.2351 N   0  0  0  0  0  0  0  0  0  0  0  0
    2.1512    0.3598   -0.1570 C   0  0  0  0  0  0  0  0  0  0  0  0
    1.9567    1.5082    0.2069 O   0  0  0  0  0  0  0  0  0  0  0  0
    3.3513   -0.1291   -0.5637 O   0  0  0  0  0  0  0  0  0  0  0  0
    4.5308    0.7156   -0.5940 C   0  0  0  0  0  0  0  0  0  0  0  0
    5.6528   -0.2028   -1.1028 C   0  0  0  0  0  0  0  0  0  0  0  0
    4.3626    1.8743   -1.5831 C   0  0  0  0  0  0  0  0  0  0  0  0
    4.9017    1.2074    0.8095 C   0  0  0  0  0  0  0  0  0  0  0  0
   -1.1652   -4.5392    0.1534 H   0  0  0  0  0  0  0  0  0  0  0  0
   -1.5388   -4.0389   -1.5435 H   0  0  0  0  0  0  0  0  0  0  0  0
   -0.0258   -4.8664   -1.1572 H   0  0  0  0  0  0  0  0  0  0  0  0
   -2.7526   -2.8305    0.0580 H   0  0  0  0  0  0  0  0  0  0  0  0
   -4.4694   -1.5813    1.8472 H   0  0  0  0  0  0  0  0  0  0  0  0
   -4.8032   -1.5816    0.1220 H   0  0  0  0  0  0  0  0  0  0  0  0
   -5.1393    0.5875    2.0169 H   0  0  0  0  0  0  0  0  0  0  0  0
   -4.7533    0.7429   -0.9010 H   0  0  0  0  0  0  0  0  0  0  0  0
   -5.9536    1.7359   -0.1177 H   0  0  0  0  0  0  0  0  0  0  0  0
   -4.4457    3.0458    1.0200 H   0  0  0  0  0  0  0  0  0  0  0  0
   -3.5235    2.6659   -0.4272 H   0  0  0  0  0  0  0  0  0  0  0  0
   -2.0936    2.4752    1.4969 H   0  0  0  0  0  0  0  0  0  0  0  0
   -3.2087    1.4790    2.3841 H   0  0  0  0  0  0  0  0  0  0  0  0
   -0.2809    1.4094    0.6962 H   0  0  0  0  0  0  0  0  0  0  0  0
    1.6142   -1.5353   -0.5659 H   0  0  0  0  0  0  0  0  0  0  0  0
    6.6105    0.3238   -1.1718 H   0  0  0  0  0  0  0  0  0  0  0  0
    5.7798   -1.0668   -0.4400 H   0  0  0  0  0  0  0  0  0  0  0  0
    5.4075   -0.6062   -2.0923 H   0  0  0  0  0  0  0  0  0  0  0  0
    3.6239    2.6039   -1.2378 H   0  0  0  0  0  0  0  0  0  0  0  0
    4.0122    1.5082   -2.5546 H   0  0  0  0  0  0  0  0  0  0  0  0
    5.3060    2.4106   -1.7324 H   0  0  0  0  0  0  0  0  0  0  0  0
    4.1728    1.9248    1.1983 H   0  0  0  0  0  0  0  0  0  0  0  0
    4.9301    0.3727    1.5190 H   0  0  0  0  0  0  0  0  0  0  0  0
    5.8796    1.7010    0.8131 H   0  0  0  0  0  0  0  0  0  0  0  0
  1  2  1  0
  2  3  1  0
  3  4  2  0
  4  5  1  0
  5  6  1  0
  6  7  1  0
  7  8  1  0
  8  9  1  0
  9 10  1  0
 10 11  1  0
 11 12  1  0
 12 13  2  0
 13 14  1  0
 14 15  1  0
 15 16  2  0
 15 17  1  0
 17 18  1  0
 18 19  1  0
 18 20  1  0
 18 21  1  0
 13  3  1  0
 11  5  2  0
  1 22  1  0
  1 23  1  0
  1 24  1  0
  4 25  1  0
  6 26  1  0
  6 27  1  0
  7 28  1  0
  8 29  1  0
  8 30  1  0
  9 31  1  0
  9 32  1  0
 10 33  1  0
 10 34  1  0
 12 35  1  0
 14 36  1  0
 19 37  1  0
 19 38  1  0
 19 39  1  0
 20 40  1  0
 20 41  1  0
 20 42  1  0
 21 43  1  0
 21 44  1  0
 21 45  1  0
M  END
>  <Unnamed: 0>  (38) 
183

>  <ID>  (38) 
TRAIN_0183

>  <Canonical_Smiles>  (38) 
COc1cc2CNCCCc2cc1NC(=O)OC(C)(C)C

>  <Inhibition>  (38) 
25.8

>  <TDC_conf_true_inhibitor>  (38) 
0

>  <TDC_conf_non_inhibitor>  (38) 
1

>  <split>  (38) 
1

$$$$
38
     RDKit          3D

 45 46  0  0  0  0  0  0  0  0999 V2000
   -4.5151    2.8400    0.7138 C   0  0  0  0  0  0  0  0  0  0  0  0
   -4.7320    1.6023    0.0499 O   0  0  0  0  0  0  0  0  0  0  0  0
   -3.7585    0.6413    0.1853 C   0  0  0  0  0  0  0  0  0  0  0  0
   -2.5357    0.8169    0.8379 C   0  0  0  0  0  0  0  0  0  0  0  0
   -1.5857   -0.2265    0.9288 C   0  0  0  0  0  0  0  0  0  0  0  0
   -0.3016    0.0703    1.6746 C   0  0  0  0  0  0  0  0  0  0  0  0
    0.8783   -0.3950    0.9701 N   0  0  0  0  0  0  0  0  0  0  0  0
    1.2689   -1.7905    1.1081 C   0  0  0  0  0  0  0  0  0  0  0  0
    0.1238   -2.7465    1.4279 C   0  0  0  0  0  0  0  0  0  0  0  0
   -0.9868   -2.6951    0.3828 C   0  0  0  0  0  0  0  0  0  0  0  0
   -1.8956   -1.4830    0.3725 C   0  0  0  0  0  0  0  0  0  0  0  0
   -3.1289   -1.6391   -0.2955 C   0  0  0  0  0  0  0  0  0  0  0  0
   -4.0407   -0.5883   -0.4268 C   0  0  0  0  0  0  0  0  0  0  0  0
   -5.3081   -0.8352   -0.9930 N   0  0  0  0  0  0  0  0  0  0  0  0
    1.6554    0.5283    0.2896 C   0  0  0  0  0  0  0  0  0  0  0  0
    1.3722    1.7151    0.1880 O   0  0  0  0  0  0  0  0  0  0  0  0
    2.7729   -0.0374   -0.2376 O   0  0  0  0  0  0  0  0  0  0  0  0
    3.7236    0.7487   -1.0003 C   0  0  0  0  0  0  0  0  0  0  0  0
    3.0830    1.3234   -2.2685 C   0  0  0  0  0  0  0  0  0  0  0  0
    4.3679    1.8383   -0.1365 C   0  0  0  0  0  0  0  0  0  0  0  0
    4.8114   -0.2549   -1.4136 C   0  0  0  0  0  0  0  0  0  0  0  0
   -4.4069    2.6978    1.7942 H   0  0  0  0  0  0  0  0  0  0  0  0
   -5.3970    3.4665    0.5485 H   0  0  0  0  0  0  0  0  0  0  0  0
   -3.6516    3.3658    0.2935 H   0  0  0  0  0  0  0  0  0  0  0  0
   -2.2875    1.7750    1.2853 H   0  0  0  0  0  0  0  0  0  0  0  0
   -0.3334   -0.3740    2.6760 H   0  0  0  0  0  0  0  0  0  0  0  0
   -0.2129    1.1505    1.8414 H   0  0  0  0  0  0  0  0  0  0  0  0
    2.0144   -1.8352    1.9109 H   0  0  0  0  0  0  0  0  0  0  0  0
    1.7682   -2.1213    0.1900 H   0  0  0  0  0  0  0  0  0  0  0  0
    0.5355   -3.7635    1.4500 H   0  0  0  0  0  0  0  0  0  0  0  0
   -0.2821   -2.5634    2.4294 H   0  0  0  0  0  0  0  0  0  0  0  0
   -1.6151   -3.5804    0.5516 H   0  0  0  0  0  0  0  0  0  0  0  0
   -0.5516   -2.8033   -0.6191 H   0  0  0  0  0  0  0  0  0  0  0  0
   -3.3857   -2.6076   -0.7207 H   0  0  0  0  0  0  0  0  0  0  0  0
   -5.2849   -1.4885   -1.7672 H   0  0  0  0  0  0  0  0  0  0  0  0
   -5.7656    0.0453   -1.2261 H   0  0  0  0  0  0  0  0  0  0  0  0
    3.8354    1.7706   -2.9272 H   0  0  0  0  0  0  0  0  0  0  0  0
    2.5531    0.5419   -2.8246 H   0  0  0  0  0  0  0  0  0  0  0  0
    2.3468    2.0997   -2.0401 H   0  0  0  0  0  0  0  0  0  0  0  0
    5.2032    2.3180   -0.6580 H   0  0  0  0  0  0  0  0  0  0  0  0
    4.7396    1.4187    0.8051 H   0  0  0  0  0  0  0  0  0  0  0  0
    3.6555    2.6246    0.1303 H   0  0  0  0  0  0  0  0  0  0  0  0
    4.3825   -1.0734   -2.0036 H   0  0  0  0  0  0  0  0  0  0  0  0
    5.2699   -0.7176   -0.5317 H   0  0  0  0  0  0  0  0  0  0  0  0
    5.6011    0.2207   -2.0046 H   0  0  0  0  0  0  0  0  0  0  0  0
  1  2  1  0
  2  3  1  0
  3  4  2  0
  4  5  1  0
  5  6  1  0
  6  7  1  0
  7  8  1  0
  8  9  1  0
  9 10  1  0
 10 11  1  0
 11 12  1  0
 12 13  2  0
 13 14  1  0
  7 15  1  0
 15 16  2  0
 15 17  1  0
 17 18  1  0
 18 19  1  0
 18 20  1  0
 18 21  1  0
 13  3  1  0
 11  5  2  0
  1 22  1  0
  1 23  1  0
  1 24  1  0
  4 25  1  0
  6 26  1  0
  6 27  1  0
  8 28  1  0
  8 29  1  0
  9 30  1  0
  9 31  1  0
 10 32  1  0
 10 33  1  0
 12 34  1  0
 14 35  1  0
 14 36  1  0
 19 37  1  0
 19 38  1  0
 19 39  1  0
 20 40  1  0
 20 41  1  0
 20 42  1  0
 21 43  1  0
 21 44  1  0
 21 45  1  0
M  END
>  <Unnamed: 0>  (39) 
222

>  <ID>  (39) 
TRAIN_0222

>  <Canonical_Smiles>  (39) 
COc1cc2CN(CCCc2cc1N)C(=O)OC(C)(C)C

>  <Inhibition>  (39) 
71.3

>  <TDC_conf_true_inhibitor>  (39) 
1

>  <TDC_conf_non_inhibitor>  (39) 
0

>  <split>  (39) 
1

$$$$
39
     RDKit          3D

 35 36  0  0  0  0  0  0  0  0999 V2000
   -3.3456    0.5610    1.9978 C   0  0  0  0  0  0  0  0  0  0  0  0
   -2.4323    0.4103    0.7834 C   0  0  0  0  0  0  0  0  0  0  0  0
   -3.1475    0.8688   -0.4827 C   0  0  0  0  0  0  0  0  0  0  0  0
   -1.8633   -1.2926    0.6585 S   0  0  0  0  0  6  0  0  0  0  0  0
   -1.0431   -1.5964    1.8209 O   0  0  0  0  0  0  0  0  0  0  0  0
   -2.9982   -2.1359    0.3295 O   0  0  0  0  0  0  0  0  0  0  0  0
   -0.7581   -1.2991   -0.7389 C   0  0  0  0  0  0  0  0  0  0  0  0
   -1.1975   -1.8911   -1.9321 C   0  0  0  0  0  0  0  0  0  0  0  0
   -0.3672   -1.8924   -3.0486 C   0  0  0  0  0  0  0  0  0  0  0  0
    0.8943   -1.3105   -2.9707 C   0  0  0  0  0  0  0  0  0  0  0  0
    1.3349   -0.7361   -1.7733 C   0  0  0  0  0  0  0  0  0  0  0  0
    0.5269   -0.7345   -0.6257 C   0  0  0  0  0  0  0  0  0  0  0  0
    0.9571   -0.1440    0.5934 N   0  0  0  0  0  0  0  0  0  0  0  0
    2.1713    0.5600    0.8322 C   0  0  0  0  0  0  0  0  0  0  0  0
    3.1805   -0.0282    1.6158 C   0  0  0  0  0  0  0  0  0  0  0  0
    2.9645   -1.5672    2.3622 Cl  0  0  0  0  0  0  0  0  0  0  0  0
    4.3814    0.6451    1.7869 C   0  0  0  0  0  0  0  0  0  0  0  0
    4.6526    1.8491    1.2380 N   0  0  0  0  0  0  0  0  0  0  0  0
    3.6712    2.4082    0.4902 C   0  0  0  0  0  0  0  0  0  0  0  0
    4.1279    3.9433   -0.1438 Cl  0  0  0  0  0  0  0  0  0  0  0  0
    2.4290    1.8199    0.2534 C   0  0  0  0  0  0  0  0  0  0  0  0
    1.2073    2.6387   -0.6669 Cl  0  0  0  0  0  0  0  0  0  0  0  0
   -2.8290    0.2631    2.9163 H   0  0  0  0  0  0  0  0  0  0  0  0
   -4.2406   -0.0634    1.9041 H   0  0  0  0  0  0  0  0  0  0  0  0
   -3.6669    1.6010    2.1171 H   0  0  0  0  0  0  0  0  0  0  0  0
   -1.5432    1.0295    0.9422 H   0  0  0  0  0  0  0  0  0  0  0  0
   -2.4796    0.8466   -1.3489 H   0  0  0  0  0  0  0  0  0  0  0  0
   -3.5058    1.8980   -0.3738 H   0  0  0  0  0  0  0  0  0  0  0  0
   -4.0096    0.2330   -0.7099 H   0  0  0  0  0  0  0  0  0  0  0  0
   -2.1832   -2.3471   -2.0019 H   0  0  0  0  0  0  0  0  0  0  0  0
   -0.7029   -2.3460   -3.9783 H   0  0  0  0  0  0  0  0  0  0  0  0
    1.5448   -1.3079   -3.8426 H   0  0  0  0  0  0  0  0  0  0  0  0
    2.3338   -0.3092   -1.7565 H   0  0  0  0  0  0  0  0  0  0  0  0
    0.7507   -0.7965    1.3679 H   0  0  0  0  0  0  0  0  0  0  0  0
    5.1854    0.2224    2.3846 H   0  0  0  0  0  0  0  0  0  0  0  0
  1  2  1  0
  2  3  1  0
  2  4  1  0
  4  5  2  0
  4  6  2  0
  4  7  1  0
  7  8  2  0
  8  9  1  0
  9 10  2  0
 10 11  1  0
 11 12  2  0
 12 13  1  0
 13 14  1  0
 14 15  2  0
 15 16  1  0
 15 17  1  0
 17 18  2  0
 18 19  1  0
 19 20  1  0
 19 21  2  0
 21 22  1  0
 12  7  1  0
 21 14  1  0
  1 23  1  0
  1 24  1  0
  1 25  1  0
  2 26  1  0
  3 27  1  0
  3 28  1  0
  3 29  1  0
  8 30  1  0
  9 31  1  0
 10 32  1  0
 11 33  1  0
 13 34  1  0
 17 35  1  0
M  END
>  <Unnamed: 0>  (40) 
190

>  <ID>  (40) 
TRAIN_0190

>  <Canonical_Smiles>  (40) 
CC(C)S(=O)(=O)c1ccccc1Nc2c(Cl)cnc(Cl)c2Cl

>  <Inhibition>  (40) 
77.0

>  <TDC_conf_true_inhibitor>  (40) 
1

>  <TDC_conf_non_inhibitor>  (40) 
0

>  <split>  (40) 
1

$$$$
40
     RDKit          3D

 29 30  0  0  0  0  0  0  0  0999 V2000
    4.9535    0.4324    1.4358 C   0  0  0  0  0  0  0  0  0  0  0  0
    4.0426    0.1265    0.3786 O   0  0  0  0  0  0  0  0  0  0  0  0
    2.7393    0.1459    0.7530 C   0  0  0  0  0  0  0  0  0  0  0  0
    2.3200    0.3968    1.8714 O   0  0  0  0  0  0  0  0  0  0  0  0
    1.8572   -0.1877   -0.3988 C   0  0  0  0  0  0  0  0  0  0  0  0
    2.3533   -0.3673   -1.6956 C   0  0  0  0  0  0  0  0  0  0  0  0
    1.4808   -0.6831   -2.7376 C   0  0  0  0  0  0  0  0  0  0  0  0
    0.1121   -0.8108   -2.4868 C   0  0  0  0  0  0  0  0  0  0  0  0
   -0.9261   -1.2065   -3.8145 Cl  0  0  0  0  0  0  0  0  0  0  0  0
   -0.4167   -0.6226   -1.1933 C   0  0  0  0  0  0  0  0  0  0  0  0
   -1.8058   -0.7414   -0.9680 N   0  0  0  0  0  0  0  0  0  0  0  0
   -2.6766   -0.0994   -0.0671 C   0  0  0  0  0  0  0  0  0  0  0  0
   -3.9262   -0.6767    0.1775 C   0  0  0  0  0  0  0  0  0  0  0  0
   -4.7802   -0.0793    1.0918 C   0  0  0  0  0  0  0  0  0  0  0  0
   -4.4787    1.0412    1.7765 N   0  0  0  0  0  0  0  0  0  0  0  0
   -3.2660    1.5805    1.5375 C   0  0  0  0  0  0  0  0  0  0  0  0
   -2.3453    1.0526    0.6438 C   0  0  0  0  0  0  0  0  0  0  0  0
    0.4794   -0.3202   -0.1581 C   0  0  0  0  0  0  0  0  0  0  0  0
    5.9685    0.3881    1.0313 H   0  0  0  0  0  0  0  0  0  0  0  0
    4.7753    1.4437    1.8147 H   0  0  0  0  0  0  0  0  0  0  0  0
    4.8687   -0.3047    2.2404 H   0  0  0  0  0  0  0  0  0  0  0  0
    3.4152   -0.2683   -1.9090 H   0  0  0  0  0  0  0  0  0  0  0  0
    1.8723   -0.8270   -3.7418 H   0  0  0  0  0  0  0  0  0  0  0  0
   -2.2935   -1.1543   -1.7616 H   0  0  0  0  0  0  0  0  0  0  0  0
   -4.2326   -1.5878   -0.3245 H   0  0  0  0  0  0  0  0  0  0  0  0
   -5.7567   -0.5044    1.3051 H   0  0  0  0  0  0  0  0  0  0  0  0
   -3.0418    2.4831    2.0990 H   0  0  0  0  0  0  0  0  0  0  0  0
   -1.4041    1.5676    0.4970 H   0  0  0  0  0  0  0  0  0  0  0  0
    0.1121   -0.2172    0.8615 H   0  0  0  0  0  0  0  0  0  0  0  0
  1  2  1  0
  2  3  1  0
  3  4  2  0
  3  5  1  0
  5  6  2  0
  6  7  1  0
  7  8  2  0
  8  9  1  0
  8 10  1  0
 10 11  1  0
 11 12  1  0
 12 13  2  0
 13 14  1  0
 14 15  2  0
 15 16  1  0
 16 17  2  0
 10 18  2  0
 18  5  1  0
 17 12  1  0
  1 19  1  0
  1 20  1  0
  1 21  1  0
  6 22  1  0
  7 23  1  0
 11 24  1  0
 13 25  1  0
 14 26  1  0
 16 27  1  0
 17 28  1  0
 18 29  1  0
M  END
>  <Unnamed: 0>  (41) 
279

>  <ID>  (41) 
TRAIN_0279

>  <Canonical_Smiles>  (41) 
COC(=O)c1ccc(Cl)c(Nc2ccncc2)c1

>  <Inhibition>  (41) 
59.2

>  <TDC_conf_true_inhibitor>  (41) 
1

>  <TDC_conf_non_inhibitor>  (41) 
0

>  <split>  (41) 
1

$$$$
41
     RDKit          3D

 25 26  0  0  0  0  0  0  0  0999 V2000
   -2.1457    1.4661   -3.3292 O   0  0  0  0  0  1  0  0  0  0  0  0
   -1.4373    0.6228   -2.7603 N   0  0  0  0  0  4  0  0  0  0  0  0
   -0.4317    0.0929   -3.2591 O   0  0  0  0  0  0  0  0  0  0  0  0
   -1.8276    0.2088   -1.4123 C   0  0  0  0  0  0  0  0  0  0  0  0
   -3.2008    0.2123   -1.1060 C   0  0  0  0  0  0  0  0  0  0  0  0
   -3.6249   -0.1754    0.1615 C   0  0  0  0  0  0  0  0  0  0  0  0
   -2.6859   -0.5647    1.1115 C   0  0  0  0  0  0  0  0  0  0  0  0
   -1.3202   -0.5608    0.8011 C   0  0  0  0  0  0  0  0  0  0  0  0
   -0.8519   -0.1768   -0.4662 C   0  0  0  0  0  0  0  0  0  0  0  0
    0.5292   -0.1219   -0.7465 N   0  0  0  0  0  0  0  0  0  0  0  0
    1.6719    0.0104    0.0701 C   0  0  0  0  0  0  0  0  0  0  0  0
    1.6253    0.6559    1.3094 C   0  0  0  0  0  0  0  0  0  0  0  0
    2.7756    0.7304    2.0824 C   0  0  0  0  0  0  0  0  0  0  0  0
    3.9619    0.2051    1.7165 N   0  0  0  0  0  0  0  0  0  0  0  0
    3.9988   -0.4157    0.5158 C   0  0  0  0  0  0  0  0  0  0  0  0
    2.9019   -0.5365   -0.3274 C   0  0  0  0  0  0  0  0  0  0  0  0
    3.1090   -1.4419   -1.9796 Br  0  0  0  0  0  0  0  0  0  0  0  0
   -3.9409    0.5128   -1.8454 H   0  0  0  0  0  0  0  0  0  0  0  0
   -4.6844   -0.1785    0.4074 H   0  0  0  0  0  0  0  0  0  0  0  0
   -3.0128   -0.8790    2.1007 H   0  0  0  0  0  0  0  0  0  0  0  0
   -0.6244   -0.9015    1.5646 H   0  0  0  0  0  0  0  0  0  0  0  0
    0.7581   -0.3061   -1.7295 H   0  0  0  0  0  0  0  0  0  0  0  0
    0.7190    1.1312    1.6671 H   0  0  0  0  0  0  0  0  0  0  0  0
    2.7695    1.2362    3.0442 H   0  0  0  0  0  0  0  0  0  0  0  0
    4.9682   -0.8259    0.2472 H   0  0  0  0  0  0  0  0  0  0  0  0
  1  2  1  0
  2  3  2  0
  2  4  1  0
  4  5  2  0
  5  6  1  0
  6  7  2  0
  7  8  1  0
  8  9  2  0
  9 10  1  0
 10 11  1  0
 11 12  2  0
 12 13  1  0
 13 14  2  0
 14 15  1  0
 15 16  2  0
 16 17  1  0
  9  4  1  0
 16 11  1  0
  5 18  1  0
  6 19  1  0
  7 20  1  0
  8 21  1  0
 10 22  1  0
 12 23  1  0
 13 24  1  0
 15 25  1  0
M  CHG  2   1  -1   2   1
M  END
>  <Unnamed: 0>  (42) 
420

>  <ID>  (42) 
TRAIN_0420

>  <Canonical_Smiles>  (42) 
[O-][N+](=O)c1ccccc1Nc2ccncc2Br

>  <Inhibition>  (42) 
72.8

>  <TDC_conf_true_inhibitor>  (42) 
1

>  <TDC_conf_non_inhibitor>  (42) 
0

>  <split>  (42) 
1

$$$$
42
     RDKit          3D

 34 35  0  0  0  0  0  0  0  0999 V2000
   -5.0863   -0.9181   -0.9687 C   0  0  0  0  0  0  0  0  0  0  0  0
   -4.3231    0.3485    0.0144 S   0  0  0  0  0  6  0  0  0  0  0  0
   -4.7406    0.1875    1.3903 O   0  0  0  0  0  0  0  0  0  0  0  0
   -4.4360    1.6120   -0.6817 O   0  0  0  0  0  0  0  0  0  0  0  0
   -2.7879   -0.1827   -0.1210 O   0  0  0  0  0  0  0  0  0  0  0  0
   -1.7532    0.6048    0.4689 C   0  0  0  0  0  0  0  0  0  0  0  0
   -0.7125   -0.3419    1.0714 C   0  0  0  0  0  0  0  0  0  0  0  0
    0.3762   -0.6763    0.0617 C   0  0  0  0  0  0  0  0  0  0  0  0
    1.1015    0.5449   -0.3841 N   0  0  0  0  0  0  0  0  0  0  0  0
    0.3087    1.8044   -0.3213 C   0  0  0  0  0  0  0  0  0  0  0  0
   -1.1567    1.5172   -0.6048 C   0  0  0  0  0  0  0  0  0  0  0  0
    2.6990    0.7197    0.1931 S   0  0  0  0  0  6  0  0  0  0  0  0
    2.6518    0.5546    1.6304 O   0  0  0  0  0  0  0  0  0  0  0  0
    3.2477    1.9183   -0.4035 O   0  0  0  0  0  0  0  0  0  0  0  0
    3.6482   -0.6562   -0.5213 C   0  0  0  0  0  0  0  0  0  0  0  0
    5.0165   -0.8198    0.0883 C   0  0  0  0  0  0  0  0  0  0  0  0
    3.9314   -1.8158    0.3950 C   0  0  0  0  0  0  0  0  0  0  0  0
   -6.1607   -0.7255   -0.9951 H   0  0  0  0  0  0  0  0  0  0  0  0
   -4.6741   -0.8773   -1.9786 H   0  0  0  0  0  0  0  0  0  0  0  0
   -4.8915   -1.8883   -0.5078 H   0  0  0  0  0  0  0  0  0  0  0  0
   -2.1686    1.2080    1.2863 H   0  0  0  0  0  0  0  0  0  0  0  0
   -0.2510    0.1371    1.9441 H   0  0  0  0  0  0  0  0  0  0  0  0
   -1.1883   -1.2657    1.4200 H   0  0  0  0  0  0  0  0  0  0  0  0
   -0.0541   -1.1564   -0.8255 H   0  0  0  0  0  0  0  0  0  0  0  0
    1.0643   -1.4064    0.4981 H   0  0  0  0  0  0  0  0  0  0  0  0
    0.6884    2.4962   -1.0811 H   0  0  0  0  0  0  0  0  0  0  0  0
    0.4168    2.2776    0.6619 H   0  0  0  0  0  0  0  0  0  0  0  0
   -1.2651    1.0618   -1.5981 H   0  0  0  0  0  0  0  0  0  0  0  0
   -1.7215    2.4560   -0.6405 H   0  0  0  0  0  0  0  0  0  0  0  0
    3.5344   -0.8229   -1.5814 H   0  0  0  0  0  0  0  0  0  0  0  0
    5.8251   -1.1281   -0.5642 H   0  0  0  0  0  0  0  0  0  0  0  0
    5.3249   -0.1441    0.8795 H   0  0  0  0  0  0  0  0  0  0  0  0
    4.0108   -2.8019   -0.0479 H   0  0  0  0  0  0  0  0  0  0  0  0
    3.5254   -1.8214    1.4005 H   0  0  0  0  0  0  0  0  0  0  0  0
  1  2  1  0
  2  3  2  0
  2  4  2  0
  2  5  1  0
  5  6  1  0
  6  7  1  0
  7  8  1  0
  8  9  1  0
  9 10  1  0
 10 11  1  0
  9 12  1  0
 12 13  2  0
 12 14  2  0
 12 15  1  0
 15 16  1  0
 16 17  1  0
 11  6  1  0
 17 15  1  0
  1 18  1  0
  1 19  1  0
  1 20  1  0
  6 21  1  0
  7 22  1  0
  7 23  1  0
  8 24  1  0
  8 25  1  0
 10 26  1  0
 10 27  1  0
 11 28  1  0
 11 29  1  0
 15 30  1  0
 16 31  1  0
 16 32  1  0
 17 33  1  0
 17 34  1  0
M  END
>  <Unnamed: 0>  (43) 
193

>  <ID>  (43) 
TRAIN_0193

>  <Canonical_Smiles>  (43) 
CS(=O)(=O)OC1CCN(CC1)S(=O)(=O)C2CC2

>  <Inhibition>  (43) 
3.28

>  <TDC_conf_true_inhibitor>  (43) 
0

>  <TDC_conf_non_inhibitor>  (43) 
1

>  <split>  (43) 
1

$$$$
43
     RDKit          3D

 53 54  0  0  0  0  0  0  0  0999 V2000
    9.5132   -1.0120    0.4077 C   0  0  0  0  0  0  0  0  0  0  0  0
    8.6852   -2.2748    0.2565 C   0  0  0  0  0  0  0  0  0  0  0  0
    7.2877   -1.9581    0.3262 O   0  0  0  0  0  0  0  0  0  0  0  0
    6.6986   -1.6268   -0.8483 C   0  0  0  0  0  0  0  0  0  0  0  0
    7.2427   -1.5718   -1.9418 O   0  0  0  0  0  0  0  0  0  0  0  0
    5.2613   -1.3262   -0.6775 C   0  0  0  0  0  0  0  0  0  0  0  0
    4.6211   -1.3290    0.5021 C   0  0  0  0  0  0  0  0  0  0  0  0
    3.1944   -1.0157    0.6517 C   0  0  0  0  0  0  0  0  0  0  0  0
    2.2284   -1.4728   -0.2488 C   0  0  0  0  0  0  0  0  0  0  0  0
    0.8753   -1.1743   -0.0504 C   0  0  0  0  0  0  0  0  0  0  0  0
    0.4569   -0.4371    1.0646 C   0  0  0  0  0  0  0  0  0  0  0  0
   -0.9223   -0.1553    1.1644 N   0  0  0  0  0  0  0  0  0  0  0  0
   -1.6965    0.2166    2.2344 C   0  0  0  0  0  0  0  0  0  0  0  0
   -1.3659    0.0745    3.8639 S   0  0  0  0  0  0  0  0  0  0  0  0
   -2.9178    0.7380    1.9045 N   0  0  0  0  0  0  0  0  0  0  0  0
   -3.3309    1.3192    0.6171 C   0  0  0  0  0  0  0  0  0  0  0  0
   -4.4654    2.3279    0.8617 C   0  0  0  0  0  0  0  0  0  0  0  0
   -5.0570    2.4529    1.9296 O   0  0  0  0  0  0  0  0  0  0  0  0
   -4.7126    3.0603   -0.2635 O   0  0  0  0  0  0  0  0  0  0  0  0
   -5.7804    4.0134   -0.1670 C   0  0  0  0  0  0  0  0  0  0  0  0
   -7.1101    3.3397   -0.4510 C   0  0  0  0  0  0  0  0  0  0  0  0
   -3.7404    0.2488   -0.3783 C   0  0  0  0  0  0  0  0  0  0  0  0
   -4.6039   -0.7946   -0.0095 C   0  0  0  0  0  0  0  0  0  0  0  0
   -4.9731   -1.7701   -0.9363 C   0  0  0  0  0  0  0  0  0  0  0  0
   -4.4901   -1.7121   -2.2417 C   0  0  0  0  0  0  0  0  0  0  0  0
   -3.6387   -0.6774   -2.6238 C   0  0  0  0  0  0  0  0  0  0  0  0
   -3.2669    0.2996   -1.6995 C   0  0  0  0  0  0  0  0  0  0  0  0
    1.4214    0.0248    1.9582 C   0  0  0  0  0  0  0  0  0  0  0  0
    2.7761   -0.2745    1.7615 C   0  0  0  0  0  0  0  0  0  0  0  0
   10.5811   -1.2470    0.4155 H   0  0  0  0  0  0  0  0  0  0  0  0
    9.3147   -0.3127   -0.4111 H   0  0  0  0  0  0  0  0  0  0  0  0
    9.2581   -0.4943    1.3385 H   0  0  0  0  0  0  0  0  0  0  0  0
    8.9302   -2.8058   -0.6709 H   0  0  0  0  0  0  0  0  0  0  0  0
    8.9002   -2.9584    1.0849 H   0  0  0  0  0  0  0  0  0  0  0  0
    4.7553   -1.0807   -1.6053 H   0  0  0  0  0  0  0  0  0  0  0  0
    5.1525   -1.5470    1.4263 H   0  0  0  0  0  0  0  0  0  0  0  0
    2.5096   -2.0754   -1.1092 H   0  0  0  0  0  0  0  0  0  0  0  0
    0.1528   -1.5440   -0.7746 H   0  0  0  0  0  0  0  0  0  0  0  0
   -1.4682   -0.4741    0.3739 H   0  0  0  0  0  0  0  0  0  0  0  0
   -3.4740    1.0304    2.7059 H   0  0  0  0  0  0  0  0  0  0  0  0
   -2.4664    1.8840    0.2448 H   0  0  0  0  0  0  0  0  0  0  0  0
   -5.5904    4.7835   -0.9221 H   0  0  0  0  0  0  0  0  0  0  0  0
   -5.7812    4.5121    0.8092 H   0  0  0  0  0  0  0  0  0  0  0  0
   -7.3251    2.5658    0.2939 H   0  0  0  0  0  0  0  0  0  0  0  0
   -7.9243    4.0699   -0.4410 H   0  0  0  0  0  0  0  0  0  0  0  0
   -7.0895    2.8454   -1.4281 H   0  0  0  0  0  0  0  0  0  0  0  0
   -4.9914   -0.8578    1.0065 H   0  0  0  0  0  0  0  0  0  0  0  0
   -5.6400   -2.5759   -0.6391 H   0  0  0  0  0  0  0  0  0  0  0  0
   -4.7818   -2.4717   -2.9627 H   0  0  0  0  0  0  0  0  0  0  0  0
   -3.2689   -0.6296   -3.6453 H   0  0  0  0  0  0  0  0  0  0  0  0
   -2.6075    1.1042   -2.0212 H   0  0  0  0  0  0  0  0  0  0  0  0
    1.1627    0.6484    2.8066 H   0  0  0  0  0  0  0  0  0  0  0  0
    3.5011    0.0975    2.4829 H   0  0  0  0  0  0  0  0  0  0  0  0
  1  2  1  0
  2  3  1  0
  3  4  1  0
  4  5  2  0
  4  6  1  0
  6  7  2  0
  7  8  1  0
  8  9  2  0
  9 10  1  0
 10 11  2  0
 11 12  1  0
 12 13  1  0
 13 14  2  0
 13 15  1  0
 15 16  1  0
 16 17  1  0
 17 18  2  0
 17 19  1  0
 19 20  1  0
 20 21  1  0
 16 22  1  0
 22 23  2  0
 23 24  1  0
 24 25  2  0
 25 26  1  0
 26 27  2  0
 11 28  1  0
 28 29  2  0
 29  8  1  0
 27 22  1  0
  1 30  1  0
  1 31  1  0
  1 32  1  0
  2 33  1  0
  2 34  1  0
  6 35  1  0
  7 36  1  0
  9 37  1  0
 10 38  1  0
 12 39  1  0
 15 40  1  0
 16 41  1  0
 20 42  1  0
 20 43  1  0
 21 44  1  0
 21 45  1  0
 21 46  1  0
 23 47  1  0
 24 48  1  0
 25 49  1  0
 26 50  1  0
 27 51  1  0
 28 52  1  0
 29 53  1  0
M  END
>  <Unnamed: 0>  (44) 
202

>  <ID>  (44) 
TRAIN_0202

>  <Canonical_Smiles>  (44) 
CCOC(=O)\C=C\c1ccc(NC(=S)NC(C(=O)OCC)c2ccccc2)cc1

>  <Inhibition>  (44) 
26.1

>  <TDC_conf_true_inhibitor>  (44) 
1

>  <TDC_conf_non_inhibitor>  (44) 
0

>  <split>  (44) 
1

$$$$
44
     RDKit          3D

 50 52  0  0  0  0  0  0  0  0999 V2000
   -4.6811    1.8009    2.4175 C   0  0  0  0  0  0  0  0  0  0  0  0
   -3.9792    2.5020    1.2675 C   0  0  0  0  0  0  0  0  0  0  0  0
   -4.3891    1.9575    0.0174 O   0  0  0  0  0  0  0  0  0  0  0  0
   -3.6687    0.7843   -0.3590 C   0  0  0  0  0  0  0  0  0  0  0  0
   -4.5169   -0.0337   -1.1637 O   0  0  0  0  0  0  0  0  0  0  0  0
   -4.2033   -1.4214   -1.0979 C   0  0  0  0  0  0  0  0  0  0  0  0
   -4.8597   -2.0669    0.1099 C   0  0  0  0  0  0  0  0  0  0  0  0
   -2.5352    1.2267   -1.2208 C   0  0  0  0  0  0  0  0  0  0  0  0
   -1.2772    0.9662   -0.7586 O   0  0  0  0  0  0  0  0  0  0  0  0
   -0.3906    1.4426   -1.6853 C   0  0  0  0  0  0  0  0  0  0  0  0
    1.0026    1.3713   -1.5991 C   0  0  0  0  0  0  0  0  0  0  0  0
    1.6249    1.9349   -2.7146 C   0  0  0  0  0  0  0  0  0  0  0  0
    1.0019    2.5015   -3.7807 N   0  0  0  0  0  0  0  0  0  0  0  0
   -0.3522    2.5427   -3.8066 C   0  0  0  0  0  0  0  0  0  0  0  0
   -1.0864    2.0075   -2.7491 C   0  0  0  0  0  0  0  0  0  0  0  0
   -2.4640    1.8691   -2.4404 C   0  0  0  0  0  0  0  0  0  0  0  0
    1.7170    0.7715   -0.4700 C   0  0  0  0  0  0  0  0  0  0  0  0
    1.3771    1.0833    0.8574 C   0  0  0  0  0  0  0  0  0  0  0  0
    2.0608    0.5157    1.9354 C   0  0  0  0  0  0  0  0  0  0  0  0
    3.1042   -0.3795    1.7077 C   0  0  0  0  0  0  0  0  0  0  0  0
    3.4673   -0.7093    0.3974 C   0  0  0  0  0  0  0  0  0  0  0  0
    2.7743   -0.1318   -0.6794 C   0  0  0  0  0  0  0  0  0  0  0  0
    4.5724   -1.6582    0.0913 C   0  0  0  0  0  0  0  0  0  0  0  0
    4.9326   -1.9300   -1.0431 O   0  0  0  0  0  0  0  0  0  0  0  0
    5.1013   -2.1616    1.2338 O   0  0  0  0  0  0  0  0  0  0  0  0
    6.1753   -3.0875    1.0265 C   0  0  0  0  0  0  0  0  0  0  0  0
    6.6519   -3.5681    2.3834 C   0  0  0  0  0  0  0  0  0  0  0  0
   -4.4085    0.7424    2.4670 H   0  0  0  0  0  0  0  0  0  0  0  0
   -5.7675    1.8433    2.2861 H   0  0  0  0  0  0  0  0  0  0  0  0
   -4.4223    2.2699    3.3713 H   0  0  0  0  0  0  0  0  0  0  0  0
   -4.2693    3.5581    1.2679 H   0  0  0  0  0  0  0  0  0  0  0  0
   -2.8896    2.4628    1.3805 H   0  0  0  0  0  0  0  0  0  0  0  0
   -3.3181    0.2372    0.5231 H   0  0  0  0  0  0  0  0  0  0  0  0
   -4.6058   -1.8830   -2.0059 H   0  0  0  0  0  0  0  0  0  0  0  0
   -3.1195   -1.5865   -1.1014 H   0  0  0  0  0  0  0  0  0  0  0  0
   -5.9370   -1.8711    0.1112 H   0  0  0  0  0  0  0  0  0  0  0  0
   -4.6996   -3.1493    0.1041 H   0  0  0  0  0  0  0  0  0  0  0  0
   -4.4611   -1.6633    1.0456 H   0  0  0  0  0  0  0  0  0  0  0  0
    2.7114    1.9590   -2.7838 H   0  0  0  0  0  0  0  0  0  0  0  0
   -0.8074    3.0020   -4.6768 H   0  0  0  0  0  0  0  0  0  0  0  0
   -3.3145    2.1881   -3.0274 H   0  0  0  0  0  0  0  0  0  0  0  0
    0.5707    1.7858    1.0644 H   0  0  0  0  0  0  0  0  0  0  0  0
    1.7786    0.7749    2.9530 H   0  0  0  0  0  0  0  0  0  0  0  0
    3.6243   -0.8103    2.5596 H   0  0  0  0  0  0  0  0  0  0  0  0
    3.0584   -0.4069   -1.6953 H   0  0  0  0  0  0  0  0  0  0  0  0
    6.9969   -2.5883    0.5009 H   0  0  0  0  0  0  0  0  0  0  0  0
    5.8211   -3.9398    0.4355 H   0  0  0  0  0  0  0  0  0  0  0  0
    5.8354   -4.0529    2.9285 H   0  0  0  0  0  0  0  0  0  0  0  0
    6.9862   -2.7241    2.9959 H   0  0  0  0  0  0  0  0  0  0  0  0
    7.4772   -4.2780    2.2784 H   0  0  0  0  0  0  0  0  0  0  0  0
  1  2  1  0
  2  3  1  0
  3  4  1  0
  4  5  1  0
  5  6  1  0
  6  7  1  0
  4  8  1  0
  8  9  1  0
  9 10  1  0
 10 11  2  0
 11 12  1  0
 12 13  2  0
 13 14  1  0
 14 15  2  0
 15 16  1  0
 11 17  1  0
 17 18  2  0
 18 19  1  0
 19 20  2  0
 20 21  1  0
 21 22  2  0
 21 23  1  0
 23 24  2  0
 23 25  1  0
 25 26  1  0
 26 27  1  0
 16  8  2  0
 15 10  1  0
 22 17  1  0
  1 28  1  0
  1 29  1  0
  1 30  1  0
  2 31  1  0
  2 32  1  0
  4 33  1  0
  6 34  1  0
  6 35  1  0
  7 36  1  0
  7 37  1  0
  7 38  1  0
 12 39  1  0
 14 40  1  0
 16 41  1  0
 18 42  1  0
 19 43  1  0
 20 44  1  0
 22 45  1  0
 26 46  1  0
 26 47  1  0
 27 48  1  0
 27 49  1  0
 27 50  1  0
M  END
>  <Unnamed: 0>  (45) 
216

>  <ID>  (45) 
TRAIN_0216

>  <Canonical_Smiles>  (45) 
CCOC(OCC)c1oc2c(cncc2c1)c3cccc(c3)C(=O)OCC

>  <Inhibition>  (45) 
71.5

>  <TDC_conf_true_inhibitor>  (45) 
1

>  <TDC_conf_non_inhibitor>  (45) 
0

>  <split>  (45) 
1

$$$$
45
     RDKit          3D

 46 50  0  0  0  0  0  0  0  0999 V2000
    3.7982   -3.2861    1.7156 O   0  0  0  0  0  0  0  0  0  0  0  0
    3.2138   -2.2343    1.0301 C   0  0  0  0  0  0  0  0  0  0  0  0
    3.9396   -1.2367    0.5195 C   0  0  0  0  0  0  0  0  0  0  0  0
    5.3972   -0.9115    0.4869 C   0  0  0  0  0  0  0  0  0  0  0  0
    5.4248    0.3899   -0.2684 C   0  0  0  0  0  0  0  0  0  0  0  0
    6.5280    1.1601   -0.5984 C   0  0  0  0  0  0  0  0  0  0  0  0
    6.3204    2.3451   -1.3141 C   0  0  0  0  0  0  0  0  0  0  0  0
    5.0258    2.7475   -1.6913 C   0  0  0  0  0  0  0  0  0  0  0  0
    3.9152    1.9712   -1.3584 C   0  0  0  0  0  0  0  0  0  0  0  0
    4.1424    0.8056   -0.6509 C   0  0  0  0  0  0  0  0  0  0  0  0
    3.1640   -0.1722   -0.1855 C   0  0  0  0  0  0  0  0  0  0  0  0
    1.8821   -0.1137   -0.3542 N   0  0  0  0  0  0  0  0  0  0  0  0
    1.1748   -1.1665    0.1752 C   0  0  0  0  0  0  0  0  0  0  0  0
   -0.1770   -1.4674    0.2006 C   0  0  0  0  0  0  0  0  0  0  0  0
   -0.2462   -2.6882    0.9102 C   0  0  0  0  0  0  0  0  0  0  0  0
    0.9381   -3.1366    1.3276 N   0  0  0  0  0  0  0  0  0  0  0  0
    1.8170   -2.2073    0.8628 N   0  0  0  0  0  0  0  0  0  0  0  0
   -1.2515   -0.6953   -0.3975 C   0  0  0  0  0  0  0  0  0  0  0  0
   -1.0907    0.0723   -1.3398 O   0  0  0  0  0  0  0  0  0  0  0  0
   -2.4888   -0.8962    0.1913 N   0  0  0  0  0  0  0  0  0  0  0  0
   -3.6438   -0.1005   -0.1998 C   0  0  0  0  0  0  0  0  0  0  0  0
   -3.5839    1.3029    0.4299 C   0  0  0  0  0  0  0  0  0  0  0  0
   -4.9597    1.9428    0.6326 C   0  0  0  0  0  0  0  0  0  0  0  0
   -5.9714    1.4540   -0.3942 C   0  0  0  0  0  0  0  0  0  0  0  0
   -6.1757   -0.0597   -0.3147 C   0  0  0  0  0  0  0  0  0  0  0  0
   -4.9406   -0.8195    0.1740 C   0  0  0  0  0  0  0  0  0  0  0  0
    3.0538   -3.8718    1.9738 H   0  0  0  0  0  0  0  0  0  0  0  0
    5.9614   -1.6778   -0.0527 H   0  0  0  0  0  0  0  0  0  0  0  0
    5.7951   -0.7753    1.4969 H   0  0  0  0  0  0  0  0  0  0  0  0
    7.5313    0.8582   -0.3134 H   0  0  0  0  0  0  0  0  0  0  0  0
    7.1720    2.9660   -1.5852 H   0  0  0  0  0  0  0  0  0  0  0  0
    4.8898    3.6716   -2.2486 H   0  0  0  0  0  0  0  0  0  0  0  0
    2.9098    2.2651   -1.6430 H   0  0  0  0  0  0  0  0  0  0  0  0
   -1.1250   -3.2805    1.1334 H   0  0  0  0  0  0  0  0  0  0  0  0
   -2.5102   -1.3245    1.1057 H   0  0  0  0  0  0  0  0  0  0  0  0
   -3.6132    0.0071   -1.2923 H   0  0  0  0  0  0  0  0  0  0  0  0
   -3.0685    1.2756    1.3986 H   0  0  0  0  0  0  0  0  0  0  0  0
   -2.9726    1.9493   -0.2129 H   0  0  0  0  0  0  0  0  0  0  0  0
   -4.8676    3.0338    0.5860 H   0  0  0  0  0  0  0  0  0  0  0  0
   -5.3259    1.7035    1.6390 H   0  0  0  0  0  0  0  0  0  0  0  0
   -6.9320    1.9624   -0.2541 H   0  0  0  0  0  0  0  0  0  0  0  0
   -5.6209    1.7214   -1.3992 H   0  0  0  0  0  0  0  0  0  0  0  0
   -6.4691   -0.4266   -1.3058 H   0  0  0  0  0  0  0  0  0  0  0  0
   -7.0144   -0.2866    0.3547 H   0  0  0  0  0  0  0  0  0  0  0  0
   -4.9934   -0.9334    1.2653 H   0  0  0  0  0  0  0  0  0  0  0  0
   -4.9526   -1.8372   -0.2352 H   0  0  0  0  0  0  0  0  0  0  0  0
  1  2  1  0
  2  3  2  0
  3  4  1  0
  4  5  1  0
  5  6  2  0
  6  7  1  0
  7  8  2  0
  8  9  1  0
  9 10  2  0
 10 11  1  0
 11 12  2  0
 12 13  1  0
 13 14  2  0
 14 15  1  0
 15 16  2  0
 16 17  1  0
 14 18  1  0
 18 19  2  0
 18 20  1  0
 20 21  1  0
 21 22  1  0
 22 23  1  0
 23 24  1  0
 24 25  1  0
 25 26  1  0
 17  2  1  0
 11  3  1  0
 10  5  1  0
 17 13  1  0
 26 21  1  0
  1 27  1  0
  4 28  1  0
  4 29  1  0
  6 30  1  0
  7 31  1  0
  8 32  1  0
  9 33  1  0
 15 34  1  0
 20 35  1  0
 21 36  1  0
 22 37  1  0
 22 38  1  0
 23 39  1  0
 23 40  1  0
 24 41  1  0
 24 42  1  0
 25 43  1  0
 25 44  1  0
 26 45  1  0
 26 46  1  0
M  END
>  <Unnamed: 0>  (46) 
217

>  <ID>  (46) 
TRAIN_0217

>  <Canonical_Smiles>  (46) 
Oc1c2Cc3ccccc3c2nc4c(cnn14)C(=O)NC5CCCCC5

>  <Inhibition>  (46) 
39.9

>  <TDC_conf_true_inhibitor>  (46) 
0

>  <TDC_conf_non_inhibitor>  (46) 
1

>  <split>  (46) 
1

$$$$
46
     RDKit          3D

 38 39  0  0  0  0  0  0  0  0999 V2000
    5.1842   -0.1108    0.2031 C   0  0  0  0  0  0  0  0  0  0  0  0
    3.9103    0.5406   -0.3096 C   0  0  0  0  0  0  0  0  0  0  0  0
    2.6702   -0.2474    0.1075 C   0  0  0  0  0  0  0  0  0  0  0  0
    1.4797    0.4018   -0.4119 N   0  0  0  0  0  0  0  0  0  0  0  0
    0.2412   -0.1658   -0.2993 C   0  0  0  0  0  0  0  0  0  0  0  0
    0.1126   -1.3871    0.1080 N   0  0  0  0  0  0  0  0  0  0  0  0
   -1.1167   -2.0190    0.2854 C   0  0  0  0  0  0  0  0  0  0  0  0
   -1.1238   -3.2346    0.9796 C   0  0  0  0  0  0  0  0  0  0  0  0
   -2.3134   -3.9361    1.2043 C   0  0  0  0  0  0  0  0  0  0  0  0
   -3.5213   -3.4274    0.7331 C   0  0  0  0  0  0  0  0  0  0  0  0
   -3.5328   -2.2230    0.0355 C   0  0  0  0  0  0  0  0  0  0  0  0
   -2.3268   -1.5454   -0.1843 C   0  0  0  0  0  0  0  0  0  0  0  0
   -2.3291   -0.0337   -1.0370 S   0  0  0  0  0  6  0  0  0  0  0  0
   -3.3729    0.7844   -0.4496 O   0  0  0  0  0  0  0  0  0  0  0  0
   -2.3323   -0.3192   -2.4571 O   0  0  0  0  0  0  0  0  0  0  0  0
   -0.8371    0.6770   -0.6470 N   0  0  0  0  0  0  0  0  0  0  0  0
   -0.7377    2.0772   -1.1412 C   0  0  0  0  0  0  0  0  0  0  0  0
   -0.5269    3.0648    0.0098 C   0  0  0  0  0  0  0  0  0  0  0  0
   -1.7297    3.1819    0.9337 C   0  0  0  0  0  0  0  0  0  0  0  0
    5.1832   -0.1672    1.2963 H   0  0  0  0  0  0  0  0  0  0  0  0
    6.0583    0.4707   -0.1063 H   0  0  0  0  0  0  0  0  0  0  0  0
    5.2933   -1.1252   -0.1936 H   0  0  0  0  0  0  0  0  0  0  0  0
    3.8489    1.5661    0.0744 H   0  0  0  0  0  0  0  0  0  0  0  0
    3.9548    0.6147   -1.4030 H   0  0  0  0  0  0  0  0  0  0  0  0
    2.6115   -0.3005    1.2008 H   0  0  0  0  0  0  0  0  0  0  0  0
    2.7422   -1.2704   -0.2803 H   0  0  0  0  0  0  0  0  0  0  0  0
    1.5208    1.4069   -0.4198 H   0  0  0  0  0  0  0  0  0  0  0  0
   -0.1853   -3.6393    1.3521 H   0  0  0  0  0  0  0  0  0  0  0  0
   -2.2922   -4.8775    1.7477 H   0  0  0  0  0  0  0  0  0  0  0  0
   -4.4484   -3.9676    0.9084 H   0  0  0  0  0  0  0  0  0  0  0  0
   -4.4703   -1.8149   -0.3356 H   0  0  0  0  0  0  0  0  0  0  0  0
   -1.6308    2.3732   -1.7044 H   0  0  0  0  0  0  0  0  0  0  0  0
    0.0893    2.1488   -1.8573 H   0  0  0  0  0  0  0  0  0  0  0  0
    0.3475    2.7942    0.6103 H   0  0  0  0  0  0  0  0  0  0  0  0
   -0.3220    4.0536   -0.4177 H   0  0  0  0  0  0  0  0  0  0  0  0
   -1.5488    3.9530    1.6895 H   0  0  0  0  0  0  0  0  0  0  0  0
   -2.6290    3.4617    0.3763 H   0  0  0  0  0  0  0  0  0  0  0  0
   -1.9209    2.2412    1.4587 H   0  0  0  0  0  0  0  0  0  0  0  0
  1  2  1  0
  2  3  1  0
  3  4  1  0
  4  5  1  0
  5  6  2  0
  6  7  1  0
  7  8  2  0
  8  9  1  0
  9 10  2  0
 10 11  1  0
 11 12  2  0
 12 13  1  0
 13 14  2  0
 13 15  2  0
 13 16  1  0
 16 17  1  0
 17 18  1  0
 18 19  1  0
 16  5  1  0
 12  7  1  0
  1 20  1  0
  1 21  1  0
  1 22  1  0
  2 23  1  0
  2 24  1  0
  3 25  1  0
  3 26  1  0
  4 27  1  0
  8 28  1  0
  9 29  1  0
 10 30  1  0
 11 31  1  0
 17 32  1  0
 17 33  1  0
 18 34  1  0
 18 35  1  0
 19 36  1  0
 19 37  1  0
 19 38  1  0
M  END
>  <Unnamed: 0>  (47) 
233

>  <ID>  (47) 
TRAIN_0233

>  <Canonical_Smiles>  (47) 
CCCNC1=Nc2ccccc2S(=O)(=O)N1CCC

>  <Inhibition>  (47) 
38.0

>  <TDC_conf_true_inhibitor>  (47) 
0

>  <TDC_conf_non_inhibitor>  (47) 
1

>  <split>  (47) 
1

$$$$
47
     RDKit          3D

 39 41  0  0  0  0  0  0  0  0999 V2000
    4.5193    0.4261   -1.3373 C   0  0  0  0  0  0  0  0  0  0  0  0
    3.6315    1.4588   -0.6691 C   0  0  0  0  0  0  0  0  0  0  0  0
    2.6287    0.8022    0.1205 O   0  0  0  0  0  0  0  0  0  0  0  0
    2.9696    0.5039    1.4034 C   0  0  0  0  0  0  0  0  0  0  0  0
    4.0653    0.7278    1.9048 O   0  0  0  0  0  0  0  0  0  0  0  0
    1.8423   -0.1879    2.1610 C   0  0  0  0  0  0  0  0  0  0  0  0
    0.6538   -0.4495    1.3864 N   0  0  0  0  0  0  0  0  0  0  0  0
   -0.4424    0.4359    1.3375 C   0  0  0  0  0  0  0  0  0  0  0  0
   -0.5194    1.4487    2.0165 O   0  0  0  0  0  0  0  0  0  0  0  0
   -1.3636   -0.1013    0.3960 N   0  0  0  0  0  0  0  0  0  0  0  0
   -2.6196    0.4511    0.0185 C   0  0  0  0  0  0  0  0  0  0  0  0
   -3.5722   -0.2640   -0.7274 C   0  0  0  0  0  0  0  0  0  0  0  0
   -4.8054    0.2991   -1.0868 C   0  0  0  0  0  0  0  0  0  0  0  0
   -5.1212    1.5969   -0.7058 C   0  0  0  0  0  0  0  0  0  0  0  0
   -4.1974    2.3160    0.0364 C   0  0  0  0  0  0  0  0  0  0  0  0
   -4.4550    3.5953    0.4355 O   0  0  0  0  0  0  0  0  0  0  0  0
   -2.9694    1.7577    0.3982 C   0  0  0  0  0  0  0  0  0  0  0  0
   -0.7893   -1.2770   -0.1508 C   0  0  0  0  0  0  0  0  0  0  0  0
   -1.2769   -2.0679   -1.1116 N   0  0  0  0  0  0  0  0  0  0  0  0
   -0.4725   -3.0845   -1.4502 C   0  0  0  0  0  0  0  0  0  0  0  0
    0.7380   -3.3572   -0.9267 N   0  0  0  0  0  0  0  0  0  0  0  0
    1.2030   -2.5398    0.0299 C   0  0  0  0  0  0  0  0  0  0  0  0
    2.4684   -2.8403    0.5299 N   0  0  0  0  0  0  0  0  0  0  0  0
    0.4459   -1.4699    0.4499 C   0  0  0  0  0  0  0  0  0  0  0  0
    3.9186   -0.2690   -1.9332 H   0  0  0  0  0  0  0  0  0  0  0  0
    5.2528    0.9083   -1.9894 H   0  0  0  0  0  0  0  0  0  0  0  0
    5.0530   -0.1731   -0.5928 H   0  0  0  0  0  0  0  0  0  0  0  0
    4.2165    2.1633   -0.0671 H   0  0  0  0  0  0  0  0  0  0  0  0
    3.1067    2.0435   -1.4316 H   0  0  0  0  0  0  0  0  0  0  0  0
    2.2133   -1.1278    2.5769 H   0  0  0  0  0  0  0  0  0  0  0  0
    1.5748    0.4705    2.9949 H   0  0  0  0  0  0  0  0  0  0  0  0
   -3.4070   -1.2910   -1.0335 H   0  0  0  0  0  0  0  0  0  0  0  0
   -5.5168   -0.2885   -1.6620 H   0  0  0  0  0  0  0  0  0  0  0  0
   -6.0775    2.0225   -0.9903 H   0  0  0  0  0  0  0  0  0  0  0  0
   -5.3404    3.8472    0.1270 H   0  0  0  0  0  0  0  0  0  0  0  0
   -2.2945    2.3891    0.9676 H   0  0  0  0  0  0  0  0  0  0  0  0
   -0.8275   -3.7565   -2.2250 H   0  0  0  0  0  0  0  0  0  0  0  0
    3.1285   -2.0952    0.3347 H   0  0  0  0  0  0  0  0  0  0  0  0
    2.4383   -3.0238    1.5269 H   0  0  0  0  0  0  0  0  0  0  0  0
  1  2  1  0
  2  3  1  0
  3  4  1  0
  4  5  2  0
  4  6  1  0
  6  7  1  0
  7  8  1  0
  8  9  2  0
  8 10  1  0
 10 11  1  0
 11 12  2  0
 12 13  1  0
 13 14  2  0
 14 15  1  0
 15 16  1  0
 15 17  2  0
 10 18  1  0
 18 19  2  0
 19 20  1  0
 20 21  2  0
 21 22  1  0
 22 23  1  0
 22 24  2  0
 24  7  1  0
 17 11  1  0
 24 18  1  0
  1 25  1  0
  1 26  1  0
  1 27  1  0
  2 28  1  0
  2 29  1  0
  6 30  1  0
  6 31  1  0
 12 32  1  0
 13 33  1  0
 14 34  1  0
 16 35  1  0
 17 36  1  0
 20 37  1  0
 23 38  1  0
 23 39  1  0
M  END
>  <Unnamed: 0>  (48) 
242

>  <ID>  (48) 
TRAIN_0242

>  <Canonical_Smiles>  (48) 
CCOC(=O)CN1C(=O)N(c2cccc(O)c2)c3ncnc(N)c13

>  <Inhibition>  (48) 
0.0

>  <TDC_conf_true_inhibitor>  (48) 
0

>  <TDC_conf_non_inhibitor>  (48) 
1

>  <split>  (48) 
1

$$$$
48
     RDKit          3D

 52 55  0  0  0  0  0  0  0  0999 V2000
    8.2236   -1.0908    0.9142 C   0  0  0  0  0  0  0  0  0  0  0  0
    6.9391   -0.7837    1.4399 O   0  0  0  0  0  0  0  0  0  0  0  0
    5.9308   -0.5874    0.5346 C   0  0  0  0  0  0  0  0  0  0  0  0
    6.0599   -0.6169   -0.8535 C   0  0  0  0  0  0  0  0  0  0  0  0
    4.9442   -0.3983   -1.6624 C   0  0  0  0  0  0  0  0  0  0  0  0
    3.6978   -0.1491   -1.0837 C   0  0  0  0  0  0  0  0  0  0  0  0
    3.5445   -0.1095    0.3114 C   0  0  0  0  0  0  0  0  0  0  0  0
    4.6772   -0.3330    1.1081 C   0  0  0  0  0  0  0  0  0  0  0  0
    2.2244    0.1690    0.8768 C   0  0  0  0  0  0  0  0  0  0  0  0
    1.9222    0.1883    2.2222 C   0  0  0  0  0  0  0  0  0  0  0  0
    0.2647    0.5503    2.4566 S   0  0  0  0  0  0  0  0  0  0  0  0
    0.0549    0.6924    0.7427 C   0  0  0  0  0  0  0  0  0  0  0  0
    1.1488    0.4576    0.0461 N   0  0  0  0  0  0  0  0  0  0  0  0
   -1.3064    1.0698    0.1652 C   0  0  0  0  0  0  0  0  0  0  0  0
   -1.7493    2.3802    0.7714 N   0  0  0  0  0  0  0  0  0  0  0  0
   -1.7155    3.2438   -0.1897 C   0  0  0  0  0  0  0  0  0  0  0  0
   -2.0551    4.5352    0.0189 N   0  0  0  0  0  0  0  0  0  0  0  0
   -1.3474    2.7941   -1.4006 N   0  0  0  0  0  0  0  0  0  0  0  0
   -1.2462    3.5377   -2.6343 C   0  0  0  0  0  0  0  0  0  0  0  0
   -1.1258    1.4465   -1.3203 C   0  0  0  0  0  0  0  0  0  0  0  0
   -0.8827    0.7109   -2.2711 O   0  0  0  0  0  0  0  0  0  0  0  0
   -2.3503   -0.0432    0.3385 C   0  0  0  0  0  0  0  0  0  0  0  0
   -2.1795   -1.2884   -0.2916 C   0  0  0  0  0  0  0  0  0  0  0  0
   -3.1261   -2.3076   -0.1532 C   0  0  0  0  0  0  0  0  0  0  0  0
   -4.2664   -2.1103    0.6273 C   0  0  0  0  0  0  0  0  0  0  0  0
   -5.2539   -3.0408    0.8203 O   0  0  0  0  0  0  0  0  0  0  0  0
   -5.1806   -4.2389    0.0572 C   0  0  0  0  0  0  0  0  0  0  0  0
   -4.4467   -0.8838    1.2896 C   0  0  0  0  0  0  0  0  0  0  0  0
   -5.6479   -0.6560    2.1624 C   0  0  0  0  0  0  0  0  0  0  0  0
   -3.4914    0.1354    1.1404 C   0  0  0  0  0  0  0  0  0  0  0  0
    8.6138   -0.2619    0.3192 H   0  0  0  0  0  0  0  0  0  0  0  0
    8.9032   -1.2421    1.7577 H   0  0  0  0  0  0  0  0  0  0  0  0
    8.2014   -2.0179    0.3351 H   0  0  0  0  0  0  0  0  0  0  0  0
    7.0110   -0.8039   -1.3383 H   0  0  0  0  0  0  0  0  0  0  0  0
    5.0406   -0.4214   -2.7458 H   0  0  0  0  0  0  0  0  0  0  0  0
    2.8403    0.0186   -1.7351 H   0  0  0  0  0  0  0  0  0  0  0  0
    4.6148   -0.3100    2.1925 H   0  0  0  0  0  0  0  0  0  0  0  0
    2.5601    0.0091    3.0740 H   0  0  0  0  0  0  0  0  0  0  0  0
   -2.5132    4.6766    0.9133 H   0  0  0  0  0  0  0  0  0  0  0  0
   -2.5161    5.0170   -0.7427 H   0  0  0  0  0  0  0  0  0  0  0  0
   -0.5854    3.0269   -3.3403 H   0  0  0  0  0  0  0  0  0  0  0  0
   -2.2464    3.6155   -3.0712 H   0  0  0  0  0  0  0  0  0  0  0  0
   -0.8690    4.5441   -2.4342 H   0  0  0  0  0  0  0  0  0  0  0  0
   -1.3000   -1.4788   -0.9083 H   0  0  0  0  0  0  0  0  0  0  0  0
   -2.9358   -3.2448   -0.6699 H   0  0  0  0  0  0  0  0  0  0  0  0
   -4.3131   -4.8407    0.3515 H   0  0  0  0  0  0  0  0  0  0  0  0
   -6.0821   -4.8257    0.2707 H   0  0  0  0  0  0  0  0  0  0  0  0
   -5.1719   -4.0257   -1.0155 H   0  0  0  0  0  0  0  0  0  0  0  0
   -6.5692   -0.7810    1.5839 H   0  0  0  0  0  0  0  0  0  0  0  0
   -5.6439   -1.3620    2.9974 H   0  0  0  0  0  0  0  0  0  0  0  0
   -5.6576    0.3547    2.5822 H   0  0  0  0  0  0  0  0  0  0  0  0
   -3.6426    1.0796    1.6643 H   0  0  0  0  0  0  0  0  0  0  0  0
  1  2  1  0
  2  3  1  0
  3  4  2  0
  4  5  1  0
  5  6  2  0
  6  7  1  0
  7  8  2  0
  7  9  1  0
  9 10  2  0
 10 11  1  0
 11 12  1  0
 12 13  2  0
 12 14  1  0
 14 15  1  0
 15 16  2  0
 16 17  1  0
 16 18  1  0
 18 19  1  0
 18 20  1  0
 20 21  2  0
 14 22  1  0
 22 23  2  0
 23 24  1  0
 24 25  2  0
 25 26  1  0
 26 27  1  0
 25 28  1  0
 28 29  1  0
 28 30  2  0
  8  3  1  0
 13  9  1  0
 20 14  1  0
 30 22  1  0
  1 31  1  0
  1 32  1  0
  1 33  1  0
  4 34  1  0
  5 35  1  0
  6 36  1  0
  8 37  1  0
 10 38  1  0
 17 39  1  0
 17 40  1  0
 19 41  1  0
 19 42  1  0
 19 43  1  0
 23 44  1  0
 24 45  1  0
 27 46  1  0
 27 47  1  0
 27 48  1  0
 29 49  1  0
 29 50  1  0
 29 51  1  0
 30 52  1  0
M  END
>  <Unnamed: 0>  (49) 
247

>  <ID>  (49) 
TRAIN_0247

>  <Canonical_Smiles>  (49) 
COc1cccc(c1)c2csc(n2)C3(N=C(N)N(C)C3=O)c4ccc(OC)c(C)c4

>  <Inhibition>  (49) 
62.9

>  <TDC_conf_true_inhibitor>  (49) 
1

>  <TDC_conf_non_inhibitor>  (49) 
0

>  <split>  (49) 
1

$$$$
49
     RDKit          3D

 52 55  0  0  0  0  0  0  0  0999 V2000
   -4.9294   -2.4934    1.5817 C   0  0  0  0  0  0  0  0  0  0  0  0
   -4.8145   -1.7051    0.3932 O   0  0  0  0  0  0  0  0  0  0  0  0
   -4.7411   -0.3654    0.7079 C   0  0  0  0  0  0  0  0  0  0  0  0
   -5.9032    0.2657    1.1727 C   0  0  0  0  0  0  0  0  0  0  0  0
   -5.8646    1.6045    1.5425 C   0  0  0  0  0  0  0  0  0  0  0  0
   -4.6686    2.3064    1.4410 C   0  0  0  0  0  0  0  0  0  0  0  0
   -3.5158    1.6763    0.9517 C   0  0  0  0  0  0  0  0  0  0  0  0
   -3.5176    0.3309    0.5443 C   0  0  0  0  0  0  0  0  0  0  0  0
   -2.3728   -0.3043    0.0468 N   0  0  0  0  0  0  0  0  0  0  0  0
   -2.5157   -0.9570   -1.2886 C   0  0  0  0  0  0  0  0  0  0  0  0
   -2.0120   -0.0306   -2.4211 C   0  0  0  0  0  0  0  0  0  0  0  0
   -0.6431    0.4103   -2.1366 N   0  0  0  0  0  0  0  0  0  0  0  0
   -0.5602    1.1494   -0.8733 C   0  0  0  0  0  0  0  0  0  0  0  0
   -1.0169    0.2525    0.2953 C   0  0  0  0  0  0  0  0  0  0  0  0
    0.3935   -0.3251   -2.7231 C   0  0  0  0  0  0  0  0  0  0  0  0
    0.1823   -1.0003   -3.7340 O   0  0  0  0  0  0  0  0  0  0  0  0
    1.7448   -0.3185   -2.1332 C   0  0  0  0  0  0  0  0  0  0  0  0
    2.8687   -0.8302   -2.7566 C   0  0  0  0  0  0  0  0  0  0  0  0
    3.8942   -0.6854   -1.8686 N   0  0  0  0  0  0  0  0  0  0  0  0
    5.2684   -1.0369   -2.1271 C   0  0  0  0  0  0  0  0  0  0  0  0
    3.3879   -0.1187   -0.7212 C   0  0  0  0  0  0  0  0  0  0  0  0
    2.0991    0.1212   -0.8685 N   0  0  0  0  0  0  0  0  0  0  0  0
    4.1640    0.1963    0.4735 C   0  0  0  0  0  0  0  0  0  0  0  0
    4.7752   -0.8195    1.2246 C   0  0  0  0  0  0  0  0  0  0  0  0
    5.5205   -0.5042    2.3638 C   0  0  0  0  0  0  0  0  0  0  0  0
    5.6452    0.8239    2.7547 C   0  0  0  0  0  0  0  0  0  0  0  0
    6.3704    1.1238    3.8403 F   0  0  0  0  0  0  0  0  0  0  0  0
    5.0270    1.8329    2.0247 C   0  0  0  0  0  0  0  0  0  0  0  0
    5.1618    3.1122    2.3970 F   0  0  0  0  0  0  0  0  0  0  0  0
    4.2827    1.5278    0.8903 C   0  0  0  0  0  0  0  0  0  0  0  0
   -5.9822   -2.5506    1.8912 H   0  0  0  0  0  0  0  0  0  0  0  0
   -4.5897   -3.5065    1.3415 H   0  0  0  0  0  0  0  0  0  0  0  0
   -4.3094   -2.1144    2.4065 H   0  0  0  0  0  0  0  0  0  0  0  0
   -6.8329   -0.2914    1.2487 H   0  0  0  0  0  0  0  0  0  0  0  0
   -6.7601    2.0960    1.9116 H   0  0  0  0  0  0  0  0  0  0  0  0
   -4.6253    3.3520    1.7351 H   0  0  0  0  0  0  0  0  0  0  0  0
   -2.6180    2.2823    0.8805 H   0  0  0  0  0  0  0  0  0  0  0  0
   -1.9134   -1.8736   -1.2738 H   0  0  0  0  0  0  0  0  0  0  0  0
   -3.5403   -1.2552   -1.5252 H   0  0  0  0  0  0  0  0  0  0  0  0
   -2.0751   -0.5543   -3.3809 H   0  0  0  0  0  0  0  0  0  0  0  0
   -2.6436    0.8626   -2.4918 H   0  0  0  0  0  0  0  0  0  0  0  0
    0.4277    1.5741   -0.7044 H   0  0  0  0  0  0  0  0  0  0  0  0
   -1.2326    2.0095   -0.9737 H   0  0  0  0  0  0  0  0  0  0  0  0
   -0.3290   -0.5969    0.3888 H   0  0  0  0  0  0  0  0  0  0  0  0
   -0.9638    0.7892    1.2494 H   0  0  0  0  0  0  0  0  0  0  0  0
    2.9929   -1.2737   -3.7362 H   0  0  0  0  0  0  0  0  0  0  0  0
    5.3814   -1.3033   -3.1830 H   0  0  0  0  0  0  0  0  0  0  0  0
    5.9042   -0.1763   -1.8974 H   0  0  0  0  0  0  0  0  0  0  0  0
    5.5325   -1.8941   -1.5037 H   0  0  0  0  0  0  0  0  0  0  0  0
    4.6589   -1.8617    0.9368 H   0  0  0  0  0  0  0  0  0  0  0  0
    6.0027   -1.2832    2.9466 H   0  0  0  0  0  0  0  0  0  0  0  0
    3.8047    2.3301    0.3346 H   0  0  0  0  0  0  0  0  0  0  0  0
  1  2  1  0
  2  3  1  0
  3  4  2  0
  4  5  1  0
  5  6  2  0
  6  7  1  0
  7  8  2  0
  8  9  1  0
  9 10  1  0
 10 11  1  0
 11 12  1  0
 12 13  1  0
 13 14  1  0
 12 15  1  0
 15 16  2  0
 15 17  1  0
 17 18  2  0
 18 19  1  0
 19 20  1  0
 19 21  1  0
 21 22  2  0
 21 23  1  0
 23 24  2  0
 24 25  1  0
 25 26  2  0
 26 27  1  0
 26 28  1  0
 28 29  1  0
 28 30  2  0
  8  3  1  0
 14  9  1  0
 22 17  1  0
 30 23  1  0
  1 31  1  0
  1 32  1  0
  1 33  1  0
  4 34  1  0
  5 35  1  0
  6 36  1  0
  7 37  1  0
 10 38  1  0
 10 39  1  0
 11 40  1  0
 11 41  1  0
 13 42  1  0
 13 43  1  0
 14 44  1  0
 14 45  1  0
 18 46  1  0
 20 47  1  0
 20 48  1  0
 20 49  1  0
 24 50  1  0
 25 51  1  0
 30 52  1  0
M  END
>  <Unnamed: 0>  (50) 
253

>  <ID>  (50) 
TRAIN_0253

>  <Canonical_Smiles>  (50) 
COc1ccccc1N2CCN(CC2)C(=O)c3cn(C)c(n3)c4ccc(F)c(F)c4

>  <Inhibition>  (50) 
33.9

>  <TDC_conf_true_inhibitor>  (50) 
1

>  <TDC_conf_non_inhibitor>  (50) 
0

>  <split>  (50) 
1

$$$$
50
     RDKit          3D

 32 34  0  0  0  0  0  0  0  0999 V2000
    7.1745    0.8089   -1.1042 I   0  0  0  0  0  0  0  0  0  0  0  0
    5.1748    0.5107   -0.8154 C   0  0  0  0  0  0  0  0  0  0  0  0
    4.2825    1.5015   -0.9387 C   0  0  0  0  0  0  0  0  0  0  0  0
    2.9224    1.4044   -0.7672 O   0  0  0  0  0  0  0  0  0  0  0  0
    2.4093    0.1766   -0.4291 C   0  0  0  0  0  0  0  0  0  0  0  0
    1.0250    0.0963   -0.2510 C   0  0  0  0  0  0  0  0  0  0  0  0
    0.4357   -1.1207    0.0937 C   0  0  0  0  0  0  0  0  0  0  0  0
   -0.8964   -1.3411    0.3022 O   0  0  0  0  0  0  0  0  0  0  0  0
   -1.8173   -0.3038   -0.0495 C   0  0  0  0  0  0  0  0  0  0  0  0
   -3.2218   -0.9204   -0.0111 C   0  0  0  0  0  0  0  0  0  0  0  0
   -4.3228    0.1278    0.1403 C   0  0  0  0  0  0  0  0  0  0  0  0
   -3.8388    1.4969   -0.3083 C   0  0  0  0  0  0  0  0  0  0  0  0
   -2.5662    1.8989    0.4365 C   0  0  0  0  0  0  0  0  0  0  0  0
   -1.7767    0.7892    0.8660 O   0  0  0  0  0  0  0  0  0  0  0  0
    1.2445   -2.2495    0.2685 C   0  0  0  0  0  0  0  0  0  0  0  0
    2.6274   -2.1724    0.0894 C   0  0  0  0  0  0  0  0  0  0  0  0
    3.2079   -0.9524   -0.2623 C   0  0  0  0  0  0  0  0  0  0  0  0
    4.6663   -0.8402   -0.4573 C   0  0  0  0  0  0  0  0  0  0  0  0
    5.3888   -1.8211   -0.3267 O   0  0  0  0  0  0  0  0  0  0  0  0
    4.5426    2.5213   -1.1952 H   0  0  0  0  0  0  0  0  0  0  0  0
    0.4378    1.0006   -0.3688 H   0  0  0  0  0  0  0  0  0  0  0  0
   -1.6028    0.0451   -1.0698 H   0  0  0  0  0  0  0  0  0  0  0  0
   -3.3743   -1.5092   -0.9242 H   0  0  0  0  0  0  0  0  0  0  0  0
   -3.3043   -1.6398    0.8138 H   0  0  0  0  0  0  0  0  0  0  0  0
   -5.2111   -0.1736   -0.4256 H   0  0  0  0  0  0  0  0  0  0  0  0
   -4.6245    0.1837    1.1938 H   0  0  0  0  0  0  0  0  0  0  0  0
   -3.6291    1.4622   -1.3850 H   0  0  0  0  0  0  0  0  0  0  0  0
   -4.6144    2.2581   -0.1705 H   0  0  0  0  0  0  0  0  0  0  0  0
   -2.8253    2.4681    1.3356 H   0  0  0  0  0  0  0  0  0  0  0  0
   -1.9483    2.5516   -0.1900 H   0  0  0  0  0  0  0  0  0  0  0  0
    0.7917   -3.1987    0.5476 H   0  0  0  0  0  0  0  0  0  0  0  0
    3.2427   -3.0589    0.2274 H   0  0  0  0  0  0  0  0  0  0  0  0
  1  2  1  0
  2  3  2  0
  3  4  1  0
  4  5  1  0
  5  6  2  0
  6  7  1  0
  7  8  1  0
  8  9  1  0
  9 10  1  0
 10 11  1  0
 11 12  1  0
 12 13  1  0
 13 14  1  0
  7 15  2  0
 15 16  1  0
 16 17  2  0
 17 18  1  0
 18 19  2  0
 18  2  1  0
 17  5  1  0
 14  9  1  0
  3 20  1  0
  6 21  1  0
  9 22  1  0
 10 23  1  0
 10 24  1  0
 11 25  1  0
 11 26  1  0
 12 27  1  0
 12 28  1  0
 13 29  1  0
 13 30  1  0
 15 31  1  0
 16 32  1  0
M  END
>  <Unnamed: 0>  (51) 
263

>  <ID>  (51) 
TRAIN_0263

>  <Canonical_Smiles>  (51) 
IC1=COc2cc(OC3CCCCO3)ccc2C1=O

>  <Inhibition>  (51) 
0.0

>  <TDC_conf_true_inhibitor>  (51) 
0

>  <TDC_conf_non_inhibitor>  (51) 
1

>  <split>  (51) 
1

$$$$
51
     RDKit          3D

 56 58  0  0  0  0  0  0  0  0999 V2000
   -6.6722    0.4857    1.1650 C   0  0  0  0  0  0  0  0  0  0  0  0
   -5.8948   -0.5988    1.6772 O   0  0  0  0  0  0  0  0  0  0  0  0
   -5.4529   -1.3798    0.6316 C   0  0  0  0  0  0  0  0  0  0  0  0
   -6.2135   -2.5271    0.3678 C   0  0  0  0  0  0  0  0  0  0  0  0
   -5.8767   -3.3560   -0.6946 C   0  0  0  0  0  0  0  0  0  0  0  0
   -4.7794   -3.0371   -1.4846 C   0  0  0  0  0  0  0  0  0  0  0  0
   -4.0063   -1.9026   -1.1978 C   0  0  0  0  0  0  0  0  0  0  0  0
   -4.2968   -1.0500   -0.1166 C   0  0  0  0  0  0  0  0  0  0  0  0
   -3.4950    0.0577    0.1775 N   0  0  0  0  0  0  0  0  0  0  0  0
   -2.5035    0.5497   -0.7886 C   0  0  0  0  0  0  0  0  0  0  0  0
   -1.9467    1.9394   -0.3867 C   0  0  0  0  0  0  0  0  0  0  0  0
   -1.5107    2.0671    1.0092 N   0  0  0  0  0  0  0  0  0  0  0  0
   -0.2408    2.7462    1.2348 C   0  0  0  0  0  0  0  0  0  0  0  0
    1.0428    1.9062    1.2339 C   0  0  0  0  0  0  0  0  0  0  0  0
    1.3590    1.2501   -0.1043 C   0  0  0  0  0  0  0  0  0  0  0  0
    2.6334    0.5587   -0.0666 N   0  0  0  0  0  0  0  0  0  0  0  0
    3.8228    1.2238   -0.2821 C   0  0  0  0  0  0  0  0  0  0  0  0
    3.8919    2.4191   -0.5437 O   0  0  0  0  0  0  0  0  0  0  0  0
    5.0607    0.4015   -0.2102 C   0  0  0  0  0  0  0  0  0  0  0  0
    5.1651   -0.7091    0.6349 C   0  0  0  0  0  0  0  0  0  0  0  0
    6.3504   -1.4494    0.6733 C   0  0  0  0  0  0  0  0  0  0  0  0
    7.4476   -1.0845   -0.1217 C   0  0  0  0  0  0  0  0  0  0  0  0
    8.7159   -1.8921   -0.0892 C   0  0  0  0  0  0  0  0  0  0  0  0
    8.5842   -3.2941   -1.1687 Cl  0  0  0  0  0  0  0  0  0  0  0  0
    7.3367    0.0331   -0.9611 C   0  0  0  0  0  0  0  0  0  0  0  0
    6.1547    0.7766   -0.9976 C   0  0  0  0  0  0  0  0  0  0  0  0
   -1.7695    0.8747    1.8157 C   0  0  0  0  0  0  0  0  0  0  0  0
   -3.2005    0.3239    1.6043 C   0  0  0  0  0  0  0  0  0  0  0  0
   -7.5489    0.1201    0.6198 H   0  0  0  0  0  0  0  0  0  0  0  0
   -7.0262    1.0719    2.0182 H   0  0  0  0  0  0  0  0  0  0  0  0
   -6.0780    1.1471    0.5267 H   0  0  0  0  0  0  0  0  0  0  0  0
   -7.0756   -2.7569    0.9872 H   0  0  0  0  0  0  0  0  0  0  0  0
   -6.4703   -4.2400   -0.9090 H   0  0  0  0  0  0  0  0  0  0  0  0
   -4.5101   -3.6750   -2.3227 H   0  0  0  0  0  0  0  0  0  0  0  0
   -3.1469   -1.7190   -1.8349 H   0  0  0  0  0  0  0  0  0  0  0  0
   -2.9566    0.6471   -1.7829 H   0  0  0  0  0  0  0  0  0  0  0  0
   -1.6727   -0.1629   -0.8613 H   0  0  0  0  0  0  0  0  0  0  0  0
   -1.1449    2.1987   -1.0879 H   0  0  0  0  0  0  0  0  0  0  0  0
   -2.7391    2.6823   -0.5427 H   0  0  0  0  0  0  0  0  0  0  0  0
   -0.1320    3.5792    0.5282 H   0  0  0  0  0  0  0  0  0  0  0  0
   -0.3066    3.2267    2.2200 H   0  0  0  0  0  0  0  0  0  0  0  0
    1.0017    1.1437    2.0213 H   0  0  0  0  0  0  0  0  0  0  0  0
    1.8732    2.5674    1.5145 H   0  0  0  0  0  0  0  0  0  0  0  0
    0.6076    0.4984   -0.3596 H   0  0  0  0  0  0  0  0  0  0  0  0
    1.3853    1.9983   -0.9041 H   0  0  0  0  0  0  0  0  0  0  0  0
    2.6284   -0.4479    0.0240 H   0  0  0  0  0  0  0  0  0  0  0  0
    4.3462   -0.9974    1.2874 H   0  0  0  0  0  0  0  0  0  0  0  0
    6.4152   -2.3141    1.3314 H   0  0  0  0  0  0  0  0  0  0  0  0
    9.5756   -1.2937   -0.4076 H   0  0  0  0  0  0  0  0  0  0  0  0
    8.9212   -2.2525    0.9242 H   0  0  0  0  0  0  0  0  0  0  0  0
    8.1691    0.3340   -1.5944 H   0  0  0  0  0  0  0  0  0  0  0  0
    6.0851    1.6474   -1.6474 H   0  0  0  0  0  0  0  0  0  0  0  0
   -1.0525    0.0813    1.5717 H   0  0  0  0  0  0  0  0  0  0  0  0
   -1.6456    1.1116    2.8788 H   0  0  0  0  0  0  0  0  0  0  0  0
   -3.2906   -0.5886    2.2070 H   0  0  0  0  0  0  0  0  0  0  0  0
   -3.9179    1.0596    1.9851 H   0  0  0  0  0  0  0  0  0  0  0  0
  1  2  1  0
  2  3  1  0
  3  4  2  0
  4  5  1  0
  5  6  2  0
  6  7  1  0
  7  8  2  0
  8  9  1  0
  9 10  1  0
 10 11  1  0
 11 12  1  0
 12 13  1  0
 13 14  1  0
 14 15  1  0
 15 16  1  0
 16 17  1  0
 17 18  2  0
 17 19  1  0
 19 20  2  0
 20 21  1  0
 21 22  2  0
 22 23  1  0
 23 24  1  0
 22 25  1  0
 25 26  2  0
 12 27  1  0
 27 28  1  0
  8  3  1  0
 28  9  1  0
 26 19  1  0
  1 29  1  0
  1 30  1  0
  1 31  1  0
  4 32  1  0
  5 33  1  0
  6 34  1  0
  7 35  1  0
 10 36  1  0
 10 37  1  0
 11 38  1  0
 11 39  1  0
 13 40  1  0
 13 41  1  0
 14 42  1  0
 14 43  1  0
 15 44  1  0
 15 45  1  0
 16 46  1  0
 20 47  1  0
 21 48  1  0
 23 49  1  0
 23 50  1  0
 25 51  1  0
 26 52  1  0
 27 53  1  0
 27 54  1  0
 28 55  1  0
 28 56  1  0
M  END
>  <Unnamed: 0>  (52) 
266

>  <ID>  (52) 
TRAIN_0266

>  <Canonical_Smiles>  (52) 
COc1ccccc1N2CCN(CCCNC(=O)c3ccc(CCl)cc3)CC2

>  <Inhibition>  (52) 
25.9

>  <TDC_conf_true_inhibitor>  (52) 
0

>  <TDC_conf_non_inhibitor>  (52) 
1

>  <split>  (52) 
1

$$$$
52
     RDKit          3D

 43 44  0  0  0  0  0  0  0  0999 V2000
   -4.4088   -1.8317    0.3312 C   0  0  0  0  0  0  0  0  0  0  0  0
   -4.9337   -0.3921    0.3731 C   0  0  0  0  0  0  0  0  0  0  0  0
   -5.7445   -0.1141    1.6437 C   0  0  0  0  0  0  0  0  0  0  0  0
   -5.8405   -0.1656   -0.8464 C   0  0  0  0  0  0  0  0  0  0  0  0
   -3.8565    0.5664    0.2135 O   0  0  0  0  0  0  0  0  0  0  0  0
   -2.8595    0.6423    1.1242 C   0  0  0  0  0  0  0  0  0  0  0  0
   -2.7499   -0.0371    2.1318 O   0  0  0  0  0  0  0  0  0  0  0  0
   -1.9821    1.6013    0.7252 N   0  0  0  0  0  0  0  0  0  0  0  0
   -0.7160    1.8125    1.3772 C   0  0  0  0  0  0  0  0  0  0  0  0
    0.3907    1.0947    0.6491 C   0  0  0  0  0  0  0  0  0  0  0  0
    0.6257   -0.2662    0.8870 C   0  0  0  0  0  0  0  0  0  0  0  0
    1.6366   -0.9437    0.2021 C   0  0  0  0  0  0  0  0  0  0  0  0
    2.4265   -0.2752   -0.7424 C   0  0  0  0  0  0  0  0  0  0  0  0
    3.5318   -1.0020   -1.4749 C   0  0  0  0  0  0  0  0  0  0  0  0
    4.8855   -0.7248   -0.9050 C   0  0  0  0  0  0  0  0  0  0  0  0
    5.4255   -1.1210    0.3021 C   0  0  0  0  0  0  0  0  0  0  0  0
    6.7244   -0.7167    0.5405 N   0  0  0  0  0  0  0  0  0  0  0  0
    7.1665   -0.0226   -0.4774 C   0  0  0  0  0  0  0  0  0  0  0  0
    8.4001    0.5085   -0.5213 N   0  0  0  0  0  0  0  0  0  0  0  0
    6.0513    0.1945   -1.7642 S   0  0  0  0  0  0  0  0  0  0  0  0
    2.1879    1.0848   -0.9844 C   0  0  0  0  0  0  0  0  0  0  0  0
    1.1765    1.7621   -0.2989 C   0  0  0  0  0  0  0  0  0  0  0  0
   -3.7606   -1.9839   -0.5392 H   0  0  0  0  0  0  0  0  0  0  0  0
   -3.8100   -2.0749    1.2141 H   0  0  0  0  0  0  0  0  0  0  0  0
   -5.2307   -2.5542    0.2843 H   0  0  0  0  0  0  0  0  0  0  0  0
   -6.6512   -0.7277    1.6799 H   0  0  0  0  0  0  0  0  0  0  0  0
   -5.1702   -0.3263    2.5504 H   0  0  0  0  0  0  0  0  0  0  0  0
   -6.0355    0.9411    1.6960 H   0  0  0  0  0  0  0  0  0  0  0  0
   -5.2850   -0.3195   -1.7789 H   0  0  0  0  0  0  0  0  0  0  0  0
   -6.2076    0.8671   -0.8725 H   0  0  0  0  0  0  0  0  0  0  0  0
   -6.7037   -0.8395   -0.8428 H   0  0  0  0  0  0  0  0  0  0  0  0
   -2.1347    1.9730   -0.2001 H   0  0  0  0  0  0  0  0  0  0  0  0
   -0.5291    2.8920    1.3861 H   0  0  0  0  0  0  0  0  0  0  0  0
   -0.7591    1.4825    2.4215 H   0  0  0  0  0  0  0  0  0  0  0  0
    0.0157   -0.8062    1.6103 H   0  0  0  0  0  0  0  0  0  0  0  0
    1.7988   -1.9986    0.4124 H   0  0  0  0  0  0  0  0  0  0  0  0
    3.4836   -0.7351   -2.5387 H   0  0  0  0  0  0  0  0  0  0  0  0
    3.3469   -2.0839   -1.4412 H   0  0  0  0  0  0  0  0  0  0  0  0
    4.9125   -1.7099    1.0530 H   0  0  0  0  0  0  0  0  0  0  0  0
    8.5243    1.3290   -1.1009 H   0  0  0  0  0  0  0  0  0  0  0  0
    8.8556    0.5776    0.3821 H   0  0  0  0  0  0  0  0  0  0  0  0
    2.7922    1.6267   -1.7091 H   0  0  0  0  0  0  0  0  0  0  0  0
    1.0102    2.8164   -0.5082 H   0  0  0  0  0  0  0  0  0  0  0  0
  1  2  1  0
  2  3  1  0
  2  4  1  0
  2  5  1  0
  5  6  1  0
  6  7  2  0
  6  8  1  0
  8  9  1  0
  9 10  1  0
 10 11  2  0
 11 12  1  0
 12 13  2  0
 13 14  1  0
 14 15  1  0
 15 16  2  0
 16 17  1  0
 17 18  2  0
 18 19  1  0
 18 20  1  0
 13 21  1  0
 21 22  2  0
 22 10  1  0
 20 15  1  0
  1 23  1  0
  1 24  1  0
  1 25  1  0
  3 26  1  0
  3 27  1  0
  3 28  1  0
  4 29  1  0
  4 30  1  0
  4 31  1  0
  8 32  1  0
  9 33  1  0
  9 34  1  0
 11 35  1  0
 12 36  1  0
 14 37  1  0
 14 38  1  0
 16 39  1  0
 19 40  1  0
 19 41  1  0
 21 42  1  0
 22 43  1  0
M  END
>  <Unnamed: 0>  (53) 
267

>  <ID>  (53) 
TRAIN_0267

>  <Canonical_Smiles>  (53) 
CC(C)(C)OC(=O)NCc1ccc(Cc2cnc(N)s2)cc1

>  <Inhibition>  (53) 
44.9

>  <TDC_conf_true_inhibitor>  (53) 
1

>  <TDC_conf_non_inhibitor>  (53) 
0

>  <split>  (53) 
1

$$$$
53
     RDKit          3D

 44 46  0  0  0  0  0  0  0  0999 V2000
   -6.3011   -1.8289   -0.5105 C   0  0  0  0  0  0  0  0  0  0  0  0
   -6.2835   -0.3187   -0.3667 C   0  0  0  0  0  0  0  0  0  0  0  0
   -5.1582    0.0797    0.4312 O   0  0  0  0  0  0  0  0  0  0  0  0
   -4.0100    0.3608   -0.2479 C   0  0  0  0  0  0  0  0  0  0  0  0
   -3.8730    0.2270   -1.4574 O   0  0  0  0  0  0  0  0  0  0  0  0
   -2.8900    0.7513    0.6993 C   0  0  0  0  0  0  0  0  0  0  0  0
   -3.3877    1.4842    1.9490 C   0  0  0  0  0  0  0  0  0  0  0  0
   -2.0889   -0.5275    1.0639 C   0  0  0  0  0  0  0  0  0  0  0  0
   -0.7490   -0.3247    0.4265 C   0  0  0  0  0  0  0  0  0  0  0  0
    0.3226   -1.2006    0.4080 C   0  0  0  0  0  0  0  0  0  0  0  0
    1.5051   -0.8045   -0.2348 C   0  0  0  0  0  0  0  0  0  0  0  0
    1.6067    0.4539   -0.8541 C   0  0  0  0  0  0  0  0  0  0  0  0
    2.7137    0.9407   -1.4940 O   0  0  0  0  0  0  0  0  0  0  0  0
    3.7124    0.0087   -1.9204 C   0  0  0  0  0  0  0  0  0  0  0  0
    4.7782   -0.2462   -0.8773 C   0  0  0  0  0  0  0  0  0  0  0  0
    5.1636    0.7509    0.0310 C   0  0  0  0  0  0  0  0  0  0  0  0
    6.1731    0.5091    0.9640 C   0  0  0  0  0  0  0  0  0  0  0  0
    6.8162   -0.7272    0.9931 C   0  0  0  0  0  0  0  0  0  0  0  0
    6.4529   -1.7222    0.0872 C   0  0  0  0  0  0  0  0  0  0  0  0
    5.4434   -1.4822   -0.8470 C   0  0  0  0  0  0  0  0  0  0  0  0
    0.5255    1.3362   -0.8139 C   0  0  0  0  0  0  0  0  0  0  0  0
   -0.6287    0.9174   -0.1786 C   0  0  0  0  0  0  0  0  0  0  0  0
   -1.8799    1.6412   -0.0043 C   0  0  0  0  0  0  0  0  0  0  0  0
   -2.0483    2.7940   -0.3643 O   0  0  0  0  0  0  0  0  0  0  0  0
   -5.3962   -2.1851   -1.0159 H   0  0  0  0  0  0  0  0  0  0  0  0
   -6.3257   -2.3094    0.4742 H   0  0  0  0  0  0  0  0  0  0  0  0
   -7.1751   -2.1540   -1.0824 H   0  0  0  0  0  0  0  0  0  0  0  0
   -6.2814    0.1762   -1.3452 H   0  0  0  0  0  0  0  0  0  0  0  0
   -7.1843    0.0148    0.1601 H   0  0  0  0  0  0  0  0  0  0  0  0
   -3.9822    0.8259    2.5923 H   0  0  0  0  0  0  0  0  0  0  0  0
   -2.5522    1.8680    2.5469 H   0  0  0  0  0  0  0  0  0  0  0  0
   -4.0170    2.3410    1.6781 H   0  0  0  0  0  0  0  0  0  0  0  0
   -2.5560   -1.4396    0.6744 H   0  0  0  0  0  0  0  0  0  0  0  0
   -1.9648   -0.6340    2.1480 H   0  0  0  0  0  0  0  0  0  0  0  0
    0.2614   -2.1740    0.8863 H   0  0  0  0  0  0  0  0  0  0  0  0
    2.3434   -1.4946   -0.2185 H   0  0  0  0  0  0  0  0  0  0  0  0
    3.2552   -0.9223   -2.2792 H   0  0  0  0  0  0  0  0  0  0  0  0
    4.2074    0.4586   -2.7896 H   0  0  0  0  0  0  0  0  0  0  0  0
    4.6735    1.7233    0.0183 H   0  0  0  0  0  0  0  0  0  0  0  0
    6.4567    1.2872    1.6678 H   0  0  0  0  0  0  0  0  0  0  0  0
    7.6030   -0.9136    1.7194 H   0  0  0  0  0  0  0  0  0  0  0  0
    6.9586   -2.6846    0.1065 H   0  0  0  0  0  0  0  0  0  0  0  0
    5.1785   -2.2684   -1.5508 H   0  0  0  0  0  0  0  0  0  0  0  0
    0.5822    2.3179   -1.2728 H   0  0  0  0  0  0  0  0  0  0  0  0
  1  2  1  0
  2  3  1  0
  3  4  1  0
  4  5  2  0
  4  6  1  0
  6  7  1  0
  6  8  1  0
  8  9  1  0
  9 10  2  0
 10 11  1  0
 11 12  2  0
 12 13  1  0
 13 14  1  0
 14 15  1  0
 15 16  2  0
 16 17  1  0
 17 18  2  0
 18 19  1  0
 19 20  2  0
 12 21  1  0
 21 22  2  0
 22 23  1  0
 23 24  2  0
 23  6  1  0
 22  9  1  0
 20 15  1  0
  1 25  1  0
  1 26  1  0
  1 27  1  0
  2 28  1  0
  2 29  1  0
  7 30  1  0
  7 31  1  0
  7 32  1  0
  8 33  1  0
  8 34  1  0
 10 35  1  0
 11 36  1  0
 14 37  1  0
 14 38  1  0
 16 39  1  0
 17 40  1  0
 18 41  1  0
 19 42  1  0
 20 43  1  0
 21 44  1  0
M  END
>  <Unnamed: 0>  (54) 
275

>  <ID>  (54) 
TRAIN_0275

>  <Canonical_Smiles>  (54) 
CCOC(=O)C1(C)Cc2ccc(OCc3ccccc3)cc2C1=O

>  <Inhibition>  (54) 
0.0

>  <TDC_conf_true_inhibitor>  (54) 
0

>  <TDC_conf_non_inhibitor>  (54) 
1

>  <split>  (54) 
1

$$$$
54
     RDKit          3D

 58 61  0  0  0  0  0  0  0  0999 V2000
   -1.1967    4.6965    0.2946 C   0  0  0  0  0  0  0  0  0  0  0  0
   -1.8204    3.5974   -0.3536 O   0  0  0  0  0  0  0  0  0  0  0  0
   -1.7289    2.3661    0.2459 C   0  0  0  0  0  0  0  0  0  0  0  0
   -1.1155    2.1314    1.4784 C   0  0  0  0  0  0  0  0  0  0  0  0
   -1.0592    0.8382    2.0044 C   0  0  0  0  0  0  0  0  0  0  0  0
   -1.6175   -0.2470    1.3128 C   0  0  0  0  0  0  0  0  0  0  0  0
   -2.2567   -0.0006    0.0876 C   0  0  0  0  0  0  0  0  0  0  0  0
   -2.3052    1.2899   -0.4568 C   0  0  0  0  0  0  0  0  0  0  0  0
   -2.8958    1.6013   -1.6575 O   0  0  0  0  0  0  0  0  0  0  0  0
   -3.3885    0.5267   -2.4477 C   0  0  0  0  0  0  0  0  0  0  0  0
   -1.5339   -1.6456    1.9195 C   0  0  1  0  0  0  0  0  0  0  0  0
   -2.8975   -2.0809    2.4147 C   0  0  0  0  0  0  0  0  0  0  0  0
   -3.5094   -3.2128    2.0404 C   0  0  0  0  0  0  0  0  0  0  0  0
   -2.9272   -4.1726    1.0533 C   0  0  0  0  0  0  0  0  0  0  0  0
   -1.8109   -3.5595    0.2116 C   0  0  0  0  0  0  0  0  0  0  0  0
   -0.8191   -2.7276    1.0529 C   0  0  1  0  0  0  0  0  0  0  0  0
    0.2943   -2.1702    0.1518 C   0  0  0  0  0  0  0  0  0  0  0  0
    0.3341   -2.4459   -1.0522 O   0  0  0  0  0  0  0  0  0  0  0  0
    1.2776   -1.3824    0.7260 N   0  0  0  0  0  0  0  0  0  0  0  0
    2.2423   -0.7006   -0.1064 C   0  0  1  0  0  0  0  0  0  0  0  0
    1.6445    0.3568   -1.0472 C   0  0  0  0  0  0  0  0  0  0  0  0
    2.6933    1.0571   -1.8772 C   0  0  0  0  0  0  0  0  0  0  0  0
    3.3740    0.3676   -2.8902 C   0  0  0  0  0  0  0  0  0  0  0  0
    4.3595    1.0090   -3.6418 C   0  0  0  0  0  0  0  0  0  0  0  0
    4.6687    2.3445   -3.3936 C   0  0  0  0  0  0  0  0  0  0  0  0
    3.9882    3.0426   -2.3977 C   0  0  0  0  0  0  0  0  0  0  0  0
    3.0034    2.4034   -1.6432 C   0  0  0  0  0  0  0  0  0  0  0  0
    3.1811   -0.1100    0.9225 C   0  0  0  0  0  0  0  0  0  0  0  0
    3.0790   -0.9921    2.0411 O   0  0  0  0  0  0  0  0  0  0  0  0
    1.8880   -1.6623    1.9405 C   0  0  0  0  0  0  0  0  0  0  0  0
    1.4616   -2.3619    2.8444 O   0  0  0  0  0  0  0  0  0  0  0  0
   -1.6584    4.8958    1.2670 H   0  0  0  0  0  0  0  0  0  0  0  0
   -1.3451    5.5822   -0.3328 H   0  0  0  0  0  0  0  0  0  0  0  0
   -0.1180    4.5365    0.3919 H   0  0  0  0  0  0  0  0  0  0  0  0
   -0.6767    2.9343    2.0613 H   0  0  0  0  0  0  0  0  0  0  0  0
   -0.5772    0.6870    2.9699 H   0  0  0  0  0  0  0  0  0  0  0  0
   -2.7282   -0.8299   -0.4269 H   0  0  0  0  0  0  0  0  0  0  0  0
   -2.5885   -0.1762   -2.7042 H   0  0  0  0  0  0  0  0  0  0  0  0
   -4.2206    0.0185   -1.9466 H   0  0  0  0  0  0  0  0  0  0  0  0
   -3.7733    0.9469   -3.3823 H   0  0  0  0  0  0  0  0  0  0  0  0
   -0.9291   -1.5511    2.8320 H   0  0  0  0  0  0  0  0  0  0  0  0
   -3.3870   -1.4321    3.1386 H   0  0  0  0  0  0  0  0  0  0  0  0
   -4.4757   -3.4656    2.4705 H   0  0  0  0  0  0  0  0  0  0  0  0
   -2.5499   -5.0477    1.5961 H   0  0  0  0  0  0  0  0  0  0  0  0
   -3.7198   -4.5283    0.3842 H   0  0  0  0  0  0  0  0  0  0  0  0
   -2.2510   -2.9455   -0.5822 H   0  0  0  0  0  0  0  0  0  0  0  0
   -1.2775   -4.3684   -0.3044 H   0  0  0  0  0  0  0  0  0  0  0  0
   -0.3496   -3.4543    1.7296 H   0  0  0  0  0  0  0  0  0  0  0  0
    2.7704   -1.4720   -0.6841 H   0  0  0  0  0  0  0  0  0  0  0  0
    1.0810    1.0940   -0.4632 H   0  0  0  0  0  0  0  0  0  0  0  0
    0.9127   -0.0895   -1.7306 H   0  0  0  0  0  0  0  0  0  0  0  0
    3.1352   -0.6717   -3.1075 H   0  0  0  0  0  0  0  0  0  0  0  0
    4.8821    0.4677   -4.4265 H   0  0  0  0  0  0  0  0  0  0  0  0
    5.4345    2.8441   -3.9823 H   0  0  0  0  0  0  0  0  0  0  0  0
    4.2217    4.0878   -2.2131 H   0  0  0  0  0  0  0  0  0  0  0  0
    2.4764    2.9679   -0.8770 H   0  0  0  0  0  0  0  0  0  0  0  0
    2.8872    0.8913    1.2559 H   0  0  0  0  0  0  0  0  0  0  0  0
    4.2170   -0.0781    0.5702 H   0  0  0  0  0  0  0  0  0  0  0  0
  1  2  1  0
  2  3  1  0
  3  4  2  0
  4  5  1  0
  5  6  2  0
  6  7  1  0
  7  8  2  0
  8  9  1  0
  9 10  1  0
  6 11  1  0
 11 12  1  0
 12 13  2  0
 13 14  1  0
 14 15  1  0
 15 16  1  0
 16 17  1  0
 17 18  2  0
 17 19  1  0
 19 20  1  0
 20 21  1  0
 21 22  1  0
 22 23  2  0
 23 24  1  0
 24 25  2  0
 25 26  1  0
 26 27  2  0
 20 28  1  0
 28 29  1  0
 29 30  1  0
 30 31  2  0
  8  3  1  0
 16 11  1  0
 30 19  1  0
 27 22  1  0
  1 32  1  0
  1 33  1  0
  1 34  1  0
  4 35  1  0
  5 36  1  0
  7 37  1  0
 10 38  1  0
 10 39  1  0
 10 40  1  0
 11 41  1  1
 12 42  1  0
 13 43  1  0
 14 44  1  0
 14 45  1  0
 15 46  1  0
 15 47  1  0
 16 48  1  1
 20 49  1  6
 21 50  1  0
 21 51  1  0
 23 52  1  0
 24 53  1  0
 25 54  1  0
 26 55  1  0
 27 56  1  0
 28 57  1  0
 28 58  1  0
M  END
>  <Unnamed: 0>  (55) 
276

>  <ID>  (55) 
TRAIN_0276

>  <Canonical_Smiles>  (55) 
COc1ccc(cc1OC)[C@H]2C=CCC[C@H]2C(=O)N3[C@@H](Cc4ccccc4)COC3=O

>  <Inhibition>  (55) 
36.0

>  <TDC_conf_true_inhibitor>  (55) 
1

>  <TDC_conf_non_inhibitor>  (55) 
0

>  <split>  (55) 
1

$$$$
55
     RDKit          3D

 34 36  0  0  0  0  0  0  0  0999 V2000
   -0.2705    3.2536   -1.5007 O   0  0  0  0  0  0  0  0  0  0  0  0
   -0.7675    2.7941   -0.5027 C   0  0  0  0  0  0  0  0  0  0  0  0
   -2.0624    2.8440   -0.0822 N   0  0  0  0  0  0  0  0  0  0  0  0
   -1.8999    1.7193    0.8596 C   0  0  0  0  0  0  0  0  0  0  0  0
   -0.3633    1.9142    0.6920 C   0  0  0  0  0  0  0  0  0  0  0  0
    0.4757    0.6943    0.3636 C   0  0  0  0  0  0  0  0  0  0  0  0
    1.8413    1.1059    0.2815 O   0  0  0  0  0  0  0  0  0  0  0  0
    2.7651    0.1410   -0.0129 C   0  0  0  0  0  0  0  0  0  0  0  0
    2.5046   -1.2171   -0.2024 C   0  0  0  0  0  0  0  0  0  0  0  0
    3.5505   -2.0981   -0.4963 C   0  0  0  0  0  0  0  0  0  0  0  0
    4.8580   -1.6267   -0.6017 C   0  0  0  0  0  0  0  0  0  0  0  0
    5.1230   -0.2726   -0.4138 C   0  0  0  0  0  0  0  0  0  0  0  0
    4.0786    0.6058   -0.1203 C   0  0  0  0  0  0  0  0  0  0  0  0
   -2.5908    0.3465    0.4527 C   0  0  0  0  0  0  0  0  0  0  0  0
   -3.0432   -0.5536    1.4400 C   0  0  0  0  0  0  0  0  0  0  0  0
   -3.6433   -1.7744    1.1175 C   0  0  0  0  0  0  0  0  0  0  0  0
   -3.8104   -2.1360   -0.2138 C   0  0  0  0  0  0  0  0  0  0  0  0
   -3.3784   -1.2774   -1.2177 C   0  0  0  0  0  0  0  0  0  0  0  0
   -2.7800   -0.0578   -0.8864 C   0  0  0  0  0  0  0  0  0  0  0  0
   -2.7681    2.9577   -0.7971 H   0  0  0  0  0  0  0  0  0  0  0  0
   -2.2339    2.0407    1.8573 H   0  0  0  0  0  0  0  0  0  0  0  0
    0.0748    2.5023    1.5105 H   0  0  0  0  0  0  0  0  0  0  0  0
    0.3705   -0.0399    1.1714 H   0  0  0  0  0  0  0  0  0  0  0  0
    0.1632    0.2477   -0.5875 H   0  0  0  0  0  0  0  0  0  0  0  0
    1.5021   -1.6248   -0.1301 H   0  0  0  0  0  0  0  0  0  0  0  0
    3.3426   -3.1547   -0.6445 H   0  0  0  0  0  0  0  0  0  0  0  0
    5.6684   -2.3132   -0.8318 H   0  0  0  0  0  0  0  0  0  0  0  0
    6.1394    0.1024   -0.4970 H   0  0  0  0  0  0  0  0  0  0  0  0
    4.2882    1.6631    0.0224 H   0  0  0  0  0  0  0  0  0  0  0  0
   -2.9256   -0.2951    2.4917 H   0  0  0  0  0  0  0  0  0  0  0  0
   -3.9804   -2.4399    1.9084 H   0  0  0  0  0  0  0  0  0  0  0  0
   -4.2770   -3.0838   -0.4688 H   0  0  0  0  0  0  0  0  0  0  0  0
   -3.5047   -1.5537   -2.2618 H   0  0  0  0  0  0  0  0  0  0  0  0
   -2.4468    0.5865   -1.6991 H   0  0  0  0  0  0  0  0  0  0  0  0
  1  2  2  0
  2  3  1  0
  3  4  1  0
  4  5  1  0
  5  6  1  0
  6  7  1  0
  7  8  1  0
  8  9  2  0
  9 10  1  0
 10 11  2  0
 11 12  1  0
 12 13  2  0
  4 14  1  0
 14 15  2  0
 15 16  1  0
 16 17  2  0
 17 18  1  0
 18 19  2  0
  5  2  1  0
 13  8  1  0
 19 14  1  0
  3 20  1  0
  4 21  1  0
  5 22  1  0
  6 23  1  0
  6 24  1  0
  9 25  1  0
 10 26  1  0
 11 27  1  0
 12 28  1  0
 13 29  1  0
 15 30  1  0
 16 31  1  0
 17 32  1  0
 18 33  1  0
 19 34  1  0
M  END
>  <Unnamed: 0>  (56) 
282

>  <ID>  (56) 
TRAIN_0282

>  <Canonical_Smiles>  (56) 
O=C1NC(C1COc2ccccc2)c3ccccc3

>  <Inhibition>  (56) 
28.6

>  <TDC_conf_true_inhibitor>  (56) 
0

>  <TDC_conf_non_inhibitor>  (56) 
1

>  <split>  (56) 
1

$$$$
56
     RDKit          3D

 29 29  0  0  0  0  0  0  0  0999 V2000
    4.4523    1.4985    2.9554 C   0  0  0  0  0  0  0  0  0  0  0  0
    3.1759    2.5546    2.2409 S   0  0  0  0  0  0  0  0  0  0  0  0
    2.1492    1.3884    1.4337 C   0  0  0  0  0  0  0  0  0  0  0  0
    2.4927    0.1048    1.3392 N   0  0  0  0  0  0  0  0  0  0  0  0
    1.4869   -0.4424    0.6364 N   0  0  0  0  0  0  0  0  0  0  0  0
    1.5467   -1.8559    0.3271 C   0  0  0  0  0  0  0  0  0  0  0  0
    0.4690    0.4394    0.3219 C   0  0  0  0  0  0  0  0  0  0  0  0
   -0.6616   -0.0071   -0.3546 N   0  0  0  0  0  0  0  0  0  0  0  0
   -1.8492    0.6816   -0.4567 C   0  0  0  0  0  0  0  0  0  0  0  0
   -2.0811    1.7669    0.0695 O   0  0  0  0  0  0  0  0  0  0  0  0
   -2.9311    0.0307   -1.2929 C   0  0  0  0  0  0  0  0  0  0  0  0
   -2.7513   -1.4014   -1.7324 C   0  0  0  0  0  0  0  0  0  0  0  0
   -1.7655   -2.0755   -1.4207 O   0  0  0  0  0  0  0  0  0  0  0  0
   -3.8473   -1.9823   -2.5863 C   0  0  0  0  0  0  0  0  0  0  0  0
    0.9131    1.6657    0.8024 C   0  0  0  0  0  0  0  0  0  0  0  0
    0.3311    2.9639    0.6753 C   0  0  0  0  0  0  0  0  0  0  0  0
   -0.0619    4.0533    0.5804 N   0  0  0  0  0  0  0  0  0  0  0  0
    5.1551    2.1197    3.5163 H   0  0  0  0  0  0  0  0  0  0  0  0
    5.0102    0.9756    2.1726 H   0  0  0  0  0  0  0  0  0  0  0  0
    4.0140    0.7701    3.6435 H   0  0  0  0  0  0  0  0  0  0  0  0
    2.4817   -2.2744    0.7096 H   0  0  0  0  0  0  0  0  0  0  0  0
    1.5059   -1.9692   -0.7591 H   0  0  0  0  0  0  0  0  0  0  0  0
    0.6969   -2.3494    0.8061 H   0  0  0  0  0  0  0  0  0  0  0  0
   -0.6856   -0.9858   -0.6530 H   0  0  0  0  0  0  0  0  0  0  0  0
   -3.0591    0.6432   -2.1917 H   0  0  0  0  0  0  0  0  0  0  0  0
   -3.8543    0.0715   -0.7023 H   0  0  0  0  0  0  0  0  0  0  0  0
   -3.9256   -1.4097   -3.5155 H   0  0  0  0  0  0  0  0  0  0  0  0
   -3.6151   -3.0242   -2.8249 H   0  0  0  0  0  0  0  0  0  0  0  0
   -4.7919   -1.9505   -2.0399 H   0  0  0  0  0  0  0  0  0  0  0  0
  1  2  1  0
  2  3  1  0
  3  4  2  0
  4  5  1  0
  5  6  1  0
  5  7  1  0
  7  8  1  0
  8  9  1  0
  9 10  2  0
  9 11  1  0
 11 12  1  0
 12 13  2  0
 12 14  1  0
  7 15  2  0
 15 16  1  0
 16 17  3  0
 15  3  1  0
  1 18  1  0
  1 19  1  0
  1 20  1  0
  6 21  1  0
  6 22  1  0
  6 23  1  0
  8 24  1  0
 11 25  1  0
 11 26  1  0
 14 27  1  0
 14 28  1  0
 14 29  1  0
M  END
>  <Unnamed: 0>  (57) 
284

>  <ID>  (57) 
TRAIN_0284

>  <Canonical_Smiles>  (57) 
CSc1nn(C)c(NC(=O)CC(=O)C)c1C#N

>  <Inhibition>  (57) 
2.85

>  <TDC_conf_true_inhibitor>  (57) 
0

>  <TDC_conf_non_inhibitor>  (57) 
1

>  <split>  (57) 
1

$$$$
57
     RDKit          3D

 26 27  0  0  0  0  0  0  0  0999 V2000
   -0.4852   -2.5626   -1.2789 O   0  0  0  0  0  0  0  0  0  0  0  0
    0.0984   -1.3287   -0.8579 C   0  0  0  0  0  0  0  0  0  0  0  0
    1.0678   -1.5495    0.3151 C   0  0  0  0  0  0  0  0  0  0  0  0
    1.9196   -0.4041    0.5606 N   0  0  0  0  0  0  0  0  0  0  0  0
    1.7121    0.5783    1.4867 C   0  0  0  0  0  0  0  0  0  0  0  0
    2.7691    1.4434    1.3256 C   0  0  0  0  0  0  0  0  0  0  0  0
    3.6105    1.0032    0.3362 N   0  0  0  0  0  0  0  0  0  0  0  0
    3.0824   -0.1192   -0.0952 C   0  0  0  0  0  0  0  0  0  0  0  0
   -1.0075   -0.3285   -0.5709 C   0  0  0  0  0  0  0  0  0  0  0  0
   -0.9493    0.9222   -1.2203 C   0  0  0  0  0  0  0  0  0  0  0  0
   -1.9229    1.8986   -0.9987 C   0  0  0  0  0  0  0  0  0  0  0  0
   -2.9713    1.6402   -0.1237 C   0  0  0  0  0  0  0  0  0  0  0  0
   -4.1707    2.8420    0.1516 Cl  0  0  0  0  0  0  0  0  0  0  0  0
   -3.0527    0.4176    0.5340 C   0  0  0  0  0  0  0  0  0  0  0  0
   -2.0767   -0.5618    0.3150 C   0  0  0  0  0  0  0  0  0  0  0  0
   -2.2557   -2.0384    1.1970 Cl  0  0  0  0  0  0  0  0  0  0  0  0
    0.2170   -3.1182   -1.6568 H   0  0  0  0  0  0  0  0  0  0  0  0
    0.6715   -0.9738   -1.7245 H   0  0  0  0  0  0  0  0  0  0  0  0
    0.5546   -1.7918    1.2507 H   0  0  0  0  0  0  0  0  0  0  0  0
    1.7258   -2.4015    0.1027 H   0  0  0  0  0  0  0  0  0  0  0  0
    0.8617    0.5900    2.1545 H   0  0  0  0  0  0  0  0  0  0  0  0
    2.9693    2.3580    1.8690 H   0  0  0  0  0  0  0  0  0  0  0  0
    3.4963   -0.7483   -0.8728 H   0  0  0  0  0  0  0  0  0  0  0  0
   -0.1347    1.1521   -1.9065 H   0  0  0  0  0  0  0  0  0  0  0  0
   -1.8542    2.8553   -1.5109 H   0  0  0  0  0  0  0  0  0  0  0  0
   -3.8751    0.2254    1.2184 H   0  0  0  0  0  0  0  0  0  0  0  0
  1  2  1  0
  2  3  1  0
  3  4  1  0
  4  5  1  0
  5  6  2  0
  6  7  1  0
  7  8  2  0
  2  9  1  0
  9 10  2  0
 10 11  1  0
 11 12  2  0
 12 13  1  0
 12 14  1  0
 14 15  2  0
 15 16  1  0
  8  4  1  0
 15  9  1  0
  1 17  1  0
  2 18  1  0
  3 19  1  0
  3 20  1  0
  5 21  1  0
  6 22  1  0
  8 23  1  0
 10 24  1  0
 11 25  1  0
 14 26  1  0
M  END
>  <Unnamed: 0>  (58) 
292

>  <ID>  (58) 
TRAIN_0292

>  <Canonical_Smiles>  (58) 
OC(Cn1ccnc1)c2ccc(Cl)cc2Cl

>  <Inhibition>  (58) 
74.1

>  <TDC_conf_true_inhibitor>  (58) 
1

>  <TDC_conf_non_inhibitor>  (58) 
0

>  <split>  (58) 
1

$$$$
58
     RDKit          3D

 30 31  0  0  0  0  0  0  0  0999 V2000
   -0.1433   -0.2520   -3.2672 O   0  0  0  0  0  0  0  0  0  0  0  0
    0.2062    0.1147   -1.9296 C   0  0  0  0  0  0  0  0  0  0  0  0
    1.4453   -0.6881   -1.5057 C   0  0  0  0  0  0  0  0  0  0  0  0
    2.0775   -0.1781   -0.3050 N   0  0  0  0  0  0  0  0  0  0  0  0
    2.9387    0.8896   -0.2702 C   0  0  0  0  0  0  0  0  0  0  0  0
    3.2870    1.0163    1.0585 C   0  0  0  0  0  0  0  0  0  0  0  0
    2.6662    0.0537    1.8239 N   0  0  0  0  0  0  0  0  0  0  0  0
    1.9580   -0.6604    0.9751 C   0  0  0  0  0  0  0  0  0  0  0  0
    0.9194   -2.1609    1.5452 Br  0  0  0  0  0  0  0  0  0  0  0  0
    4.1706    1.9984    1.6470 N   0  0  0  0  0  4  0  0  0  0  0  0
    4.3714    1.9394    2.8665 O   0  0  0  0  0  0  0  0  0  0  0  0
    4.6582    2.8357    0.8727 O   0  0  0  0  0  1  0  0  0  0  0  0
   -0.9895   -0.0959   -1.0217 C   0  0  0  0  0  0  0  0  0  0  0  0
   -1.3356    0.8815   -0.0745 C   0  0  0  0  0  0  0  0  0  0  0  0
   -2.4180    0.6861    0.7882 C   0  0  0  0  0  0  0  0  0  0  0  0
   -3.1640   -0.4958    0.7055 C   0  0  0  0  0  0  0  0  0  0  0  0
   -2.8332   -1.4800   -0.2331 C   0  0  0  0  0  0  0  0  0  0  0  0
   -1.7487   -1.2771   -1.0903 C   0  0  0  0  0  0  0  0  0  0  0  0
   -4.3033   -0.7036    1.6082 N   0  0  0  0  0  4  0  0  0  0  0  0
   -4.5897    0.2104    2.3943 O   0  0  0  0  0  0  0  0  0  0  0  0
   -4.9145   -1.7785    1.5258 O   0  0  0  0  0  1  0  0  0  0  0  0
   -1.0315    0.1075   -3.4449 H   0  0  0  0  0  0  0  0  0  0  0  0
    0.4508    1.1834   -1.9663 H   0  0  0  0  0  0  0  0  0  0  0  0
    1.2166   -1.7504   -1.3693 H   0  0  0  0  0  0  0  0  0  0  0  0
    2.2012   -0.6501   -2.3012 H   0  0  0  0  0  0  0  0  0  0  0  0
    3.2248    1.4503   -1.1507 H   0  0  0  0  0  0  0  0  0  0  0  0
   -0.7613    1.8036    0.0083 H   0  0  0  0  0  0  0  0  0  0  0  0
   -2.6618    1.4577    1.5166 H   0  0  0  0  0  0  0  0  0  0  0  0
   -3.4025   -2.4048   -0.3072 H   0  0  0  0  0  0  0  0  0  0  0  0
   -1.4952   -2.0525   -1.8132 H   0  0  0  0  0  0  0  0  0  0  0  0
  1  2  1  0
  2  3  1  0
  3  4  1  0
  4  5  1  0
  5  6  2  0
  6  7  1  0
  7  8  2  0
  8  9  1  0
  6 10  1  0
 10 11  2  0
 10 12  1  0
  2 13  1  0
 13 14  2  0
 14 15  1  0
 15 16  2  0
 16 17  1  0
 17 18  2  0
 16 19  1  0
 19 20  2  0
 19 21  1  0
  8  4  1  0
 18 13  1  0
  1 22  1  0
  2 23  1  0
  3 24  1  0
  3 25  1  0
  5 26  1  0
 14 27  1  0
 15 28  1  0
 17 29  1  0
 18 30  1  0
M  CHG  4  10   1  12  -1  19   1  21  -1
M  END
>  <Unnamed: 0>  (59) 
480

>  <ID>  (59) 
TRAIN_0480

>  <Canonical_Smiles>  (59) 
OC(Cn1cc(nc1Br)[N+](=O)[O-])c2ccc(cc2)[N+](=O)[O-]

>  <Inhibition>  (59) 
42.9

>  <TDC_conf_true_inhibitor>  (59) 
1

>  <TDC_conf_non_inhibitor>  (59) 
0

>  <split>  (59) 
1

$$$$
59
     RDKit          3D

 42 44  0  0  0  0  0  0  0  0999 V2000
   -3.5024   -1.0860   -3.0812 C   0  0  0  0  0  0  0  0  0  0  0  0
   -2.8839   -0.6152   -1.8490 N   0  0  0  0  0  0  0  0  0  0  0  0
   -1.5227   -0.3453   -1.8615 C   0  0  0  0  0  0  0  0  0  0  0  0
   -0.8152   -0.5266   -2.8587 O   0  0  0  0  0  0  0  0  0  0  0  0
   -0.8648    0.1428   -0.5974 C   0  0  0  0  0  0  0  0  0  0  0  0
   -1.6171    0.2450    0.5163 C   0  0  0  0  0  0  0  0  0  0  0  0
   -1.0439    0.5291    1.7475 O   0  0  0  0  0  0  0  0  0  0  0  0
   -3.0748    0.0286    0.4958 C   0  0  0  0  0  0  0  0  0  0  0  0
   -3.8800    0.2974    1.6197 C   0  0  0  0  0  0  0  0  0  0  0  0
   -5.2564    0.0736    1.5900 C   0  0  0  0  0  0  0  0  0  0  0  0
   -5.8499   -0.4111    0.4333 C   0  0  0  0  0  0  0  0  0  0  0  0
   -5.0707   -0.6509   -0.6992 C   0  0  0  0  0  0  0  0  0  0  0  0
   -3.6835   -0.4212   -0.6870 C   0  0  0  0  0  0  0  0  0  0  0  0
    0.5839    0.4074   -0.6263 C   0  0  0  0  0  0  0  0  0  0  0  0
    1.1642    1.4276    0.0253 C   0  0  0  0  0  0  0  0  0  0  0  0
    2.6062    1.7411   -0.0673 C   0  0  0  0  0  0  0  0  0  0  0  0
    2.9409    2.8172   -0.5608 O   0  0  0  0  0  0  0  0  0  0  0  0
    3.5031    0.8473    0.4791 N   0  0  0  0  0  0  0  0  0  0  0  0
    3.1546   -0.3553    1.2417 C   0  0  0  0  0  0  0  0  0  0  0  0
    4.2496   -0.6869    2.2617 C   0  0  0  0  0  0  0  0  0  0  0  0
    5.5440   -0.8917    1.6780 O   0  0  0  0  0  0  0  0  0  0  0  0
    5.7427   -0.1874    0.4425 C   0  0  0  0  0  0  0  0  0  0  0  0
    4.9338    1.1083    0.3393 C   0  0  0  0  0  0  0  0  0  0  0  0
    1.3436   -0.4256   -1.4347 O   0  0  0  0  0  0  0  0  0  0  0  0
   -3.9709   -2.0598   -2.9051 H   0  0  0  0  0  0  0  0  0  0  0  0
   -2.7744   -1.2098   -3.8877 H   0  0  0  0  0  0  0  0  0  0  0  0
   -4.2477   -0.3566   -3.4144 H   0  0  0  0  0  0  0  0  0  0  0  0
   -1.4893   -0.0163    2.4184 H   0  0  0  0  0  0  0  0  0  0  0  0
   -3.4581    0.7136    2.5314 H   0  0  0  0  0  0  0  0  0  0  0  0
   -5.8638    0.2876    2.4661 H   0  0  0  0  0  0  0  0  0  0  0  0
   -6.9225   -0.5870    0.4028 H   0  0  0  0  0  0  0  0  0  0  0  0
   -5.5822   -1.0091   -1.5878 H   0  0  0  0  0  0  0  0  0  0  0  0
    0.5921    2.1518    0.5924 H   0  0  0  0  0  0  0  0  0  0  0  0
    3.0619   -1.1748    0.5204 H   0  0  0  0  0  0  0  0  0  0  0  0
    2.1961   -0.2245    1.7525 H   0  0  0  0  0  0  0  0  0  0  0  0
    4.3439    0.1253    2.9915 H   0  0  0  0  0  0  0  0  0  0  0  0
    3.9900   -1.5948    2.8153 H   0  0  0  0  0  0  0  0  0  0  0  0
    5.4747   -0.8702   -0.3723 H   0  0  0  0  0  0  0  0  0  0  0  0
    6.8126    0.0251    0.3534 H   0  0  0  0  0  0  0  0  0  0  0  0
    5.1323    1.6106   -0.6130 H   0  0  0  0  0  0  0  0  0  0  0  0
    5.2094    1.7906    1.1517 H   0  0  0  0  0  0  0  0  0  0  0  0
    0.7945   -0.6639   -2.2146 H   0  0  0  0  0  0  0  0  0  0  0  0
  1  2  1  0
  2  3  1  0
  3  4  2  0
  3  5  1  0
  5  6  2  0
  6  7  1  0
  6  8  1  0
  8  9  2  0
  9 10  1  0
 10 11  2  0
 11 12  1  0
 12 13  2  0
  5 14  1  0
 14 15  2  0
 15 16  1  0
 16 17  2  0
 16 18  1  0
 18 19  1  0
 19 20  1  0
 20 21  1  0
 21 22  1  0
 22 23  1  0
 14 24  1  0
 13  2  1  0
 13  8  1  0
 23 18  1  0
  1 25  1  0
  1 26  1  0
  1 27  1  0
  7 28  1  0
  9 29  1  0
 10 30  1  0
 11 31  1  0
 12 32  1  0
 15 33  1  0
 19 34  1  0
 19 35  1  0
 20 36  1  0
 20 37  1  0
 22 38  1  0
 22 39  1  0
 23 40  1  0
 23 41  1  0
 24 42  1  0
M  END
>  <Unnamed: 0>  (60) 
307

>  <ID>  (60) 
TRAIN_0307

>  <Canonical_Smiles>  (60) 
CN1C(=O)C(=C(O)c2ccccc12)\C(=C\C(=O)N3CCOCC3)\O

>  <Inhibition>  (60) 
13.8

>  <TDC_conf_true_inhibitor>  (60) 
0

>  <TDC_conf_non_inhibitor>  (60) 
1

>  <split>  (60) 
1

$$$$
60
     RDKit          3D

 38 40  0  0  0  0  0  0  0  0999 V2000
   -3.2493    2.9138    1.8794 C   0  0  0  0  0  0  0  0  0  0  0  0
   -2.9373    1.7095    1.1916 O   0  0  0  0  0  0  0  0  0  0  0  0
   -1.5434    1.5697    1.1589 N   0  0  0  0  0  0  0  0  0  0  0  0
   -1.1643    0.5402    0.4584 C   0  0  0  0  0  0  0  0  0  0  0  0
   -2.0632   -0.4635   -0.1745 C   0  0  0  0  0  0  0  0  0  0  0  0
   -3.0086   -1.1407    0.6029 C   0  0  0  0  0  0  0  0  0  0  0  0
   -3.8204   -2.1127    0.0177 C   0  0  0  0  0  0  0  0  0  0  0  0
   -3.6850   -2.4102   -1.3390 C   0  0  0  0  0  0  0  0  0  0  0  0
   -2.7401   -1.7364   -2.1144 C   0  0  0  0  0  0  0  0  0  0  0  0
   -1.9253   -0.7631   -1.5342 C   0  0  0  0  0  0  0  0  0  0  0  0
    0.2895    0.3134    0.3018 C   0  0  0  0  0  0  0  0  0  0  0  0
    0.8770   -0.8027    0.8952 C   0  0  0  0  0  0  0  0  0  0  0  0
    2.2533   -1.0114    0.7511 C   0  0  0  0  0  0  0  0  0  0  0  0
    2.8941   -2.1188    1.3336 C   0  0  0  0  0  0  0  0  0  0  0  0
    4.2654   -2.2935    1.1684 C   0  0  0  0  0  0  0  0  0  0  0  0
    5.1260   -3.7823    1.9507 Br  0  0  0  0  0  0  0  0  0  0  0  0
    5.0034   -1.3764    0.4297 C   0  0  0  0  0  0  0  0  0  0  0  0
    4.3590   -0.2769   -0.1468 C   0  0  0  0  0  0  0  0  0  0  0  0
    2.9936   -0.0717   -0.0018 C   0  0  0  0  0  0  0  0  0  0  0  0
    2.4263    1.0004   -0.5797 N   0  0  0  0  0  0  0  0  0  0  0  0
    1.0930    1.1878   -0.4164 C   0  0  0  0  0  0  0  0  0  0  0  0
    0.4903    2.2488   -1.0613 O   0  0  0  0  0  0  0  0  0  0  0  0
    1.4166    3.1805   -1.6068 C   0  0  0  0  0  0  0  0  0  0  0  0
   -4.3364    3.0254    1.9055 H   0  0  0  0  0  0  0  0  0  0  0  0
   -2.8744    2.8720    2.9067 H   0  0  0  0  0  0  0  0  0  0  0  0
   -2.8191    3.7725    1.3549 H   0  0  0  0  0  0  0  0  0  0  0  0
   -3.1145   -0.9099    1.6599 H   0  0  0  0  0  0  0  0  0  0  0  0
   -4.5606   -2.6351    0.6184 H   0  0  0  0  0  0  0  0  0  0  0  0
   -4.3212   -3.1652   -1.7945 H   0  0  0  0  0  0  0  0  0  0  0  0
   -2.6422   -1.9662   -3.1725 H   0  0  0  0  0  0  0  0  0  0  0  0
   -1.2017   -0.2350   -2.1499 H   0  0  0  0  0  0  0  0  0  0  0  0
    0.2678   -1.4936    1.4722 H   0  0  0  0  0  0  0  0  0  0  0  0
    2.3222   -2.8397    1.9133 H   0  0  0  0  0  0  0  0  0  0  0  0
    6.0745   -1.5010    0.2935 H   0  0  0  0  0  0  0  0  0  0  0  0
    4.9395    0.4394   -0.7243 H   0  0  0  0  0  0  0  0  0  0  0  0
    2.0816    3.5824   -0.8342 H   0  0  0  0  0  0  0  0  0  0  0  0
    1.9899    2.7338   -2.4263 H   0  0  0  0  0  0  0  0  0  0  0  0
    0.8440    4.0166   -2.0199 H   0  0  0  0  0  0  0  0  0  0  0  0
  1  2  1  0
  2  3  1  0
  3  4  2  0
  4  5  1  0
  5  6  2  0
  6  7  1  0
  7  8  2  0
  8  9  1  0
  9 10  2  0
  4 11  1  0
 11 12  2  0
 12 13  1  0
 13 14  2  0
 14 15  1  0
 15 16  1  0
 15 17  2  0
 17 18  1  0
 18 19  2  0
 19 20  1  0
 20 21  2  0
 21 22  1  0
 22 23  1  0
 10  5  1  0
 21 11  1  0
 19 13  1  0
  1 24  1  0
  1 25  1  0
  1 26  1  0
  6 27  1  0
  7 28  1  0
  8 29  1  0
  9 30  1  0
 10 31  1  0
 12 32  1  0
 14 33  1  0
 17 34  1  0
 18 35  1  0
 23 36  1  0
 23 37  1  0
 23 38  1  0
M  END
>  <Unnamed: 0>  (61) 
330

>  <ID>  (61) 
TRAIN_0330

>  <Canonical_Smiles>  (61) 
CO\N=C(/c1ccccc1)\c2cc3cc(Br)ccc3nc2OC

>  <Inhibition>  (61) 
28.6

>  <TDC_conf_true_inhibitor>  (61) 
0

>  <TDC_conf_non_inhibitor>  (61) 
1

>  <split>  (61) 
1

$$$$
61
     RDKit          3D

 37 40  0  0  0  0  0  0  0  0999 V2000
   -3.8080    0.3069    2.8444 C   0  0  0  0  0  0  0  0  0  0  0  0
   -3.2514    0.3717    1.4535 C   0  0  0  0  0  0  0  0  0  0  0  0
   -4.1054    0.4947    0.3524 C   0  0  0  0  0  0  0  0  0  0  0  0
   -3.5878    0.5204   -0.9421 C   0  0  0  0  0  0  0  0  0  0  0  0
   -2.2119    0.4099   -1.1486 C   0  0  0  0  0  0  0  0  0  0  0  0
   -1.3346    0.2620   -0.0634 C   0  0  0  0  0  0  0  0  0  0  0  0
   -1.8713    0.2478    1.2364 C   0  0  0  0  0  0  0  0  0  0  0  0
    0.1189    0.1620   -0.2791 C   0  0  0  0  0  0  0  0  0  0  0  0
    0.8777    1.3467   -0.3939 C   0  0  0  0  0  0  0  0  0  0  0  0
    0.2033    2.5457   -0.2961 O   0  0  0  0  0  0  0  0  0  0  0  0
    2.2750    1.3450   -0.6007 C   0  0  0  0  0  0  0  0  0  0  0  0
    3.0657    2.5082   -0.7762 C   0  0  0  0  0  0  0  0  0  0  0  0
    4.4439    2.4182   -0.9649 C   0  0  0  0  0  0  0  0  0  0  0  0
    5.0491    1.1703   -0.9878 C   0  0  0  0  0  0  0  0  0  0  0  0
    4.2696    0.0222   -0.8329 C   0  0  0  0  0  0  0  0  0  0  0  0
    2.8947    0.0877   -0.6471 C   0  0  0  0  0  0  0  0  0  0  0  0
    2.2108   -1.0580   -0.5257 N   0  0  0  0  0  0  0  0  0  0  0  0
    0.8498   -1.0306   -0.3603 C   0  0  0  0  0  0  0  0  0  0  0  0
    0.2417   -2.3228   -0.2803 N   0  0  0  0  0  0  0  0  0  0  0  0
    0.9122   -3.5269   -0.3418 C   0  0  0  0  0  0  0  0  0  0  0  0
    0.0758   -4.5350   -0.2422 N   0  0  0  0  0  0  0  0  0  0  0  0
   -1.1239   -3.9060   -0.1228 C   0  0  0  0  0  0  0  0  0  0  0  0
   -1.0815   -2.5751   -0.1401 N   0  0  0  0  0  0  0  0  0  0  0  0
   -4.7396    0.8775    2.9201 H   0  0  0  0  0  0  0  0  0  0  0  0
   -3.1053    0.7363    3.5662 H   0  0  0  0  0  0  0  0  0  0  0  0
   -4.0073   -0.7334    3.1194 H   0  0  0  0  0  0  0  0  0  0  0  0
   -5.1804    0.5710    0.4964 H   0  0  0  0  0  0  0  0  0  0  0  0
   -4.2560    0.6229   -1.7927 H   0  0  0  0  0  0  0  0  0  0  0  0
   -1.8242    0.4361   -2.1640 H   0  0  0  0  0  0  0  0  0  0  0  0
   -1.2049    0.1327    2.0886 H   0  0  0  0  0  0  0  0  0  0  0  0
    0.7591    3.1729    0.1935 H   0  0  0  0  0  0  0  0  0  0  0  0
    2.6121    3.4958   -0.7903 H   0  0  0  0  0  0  0  0  0  0  0  0
    5.0388    3.3180   -1.1009 H   0  0  0  0  0  0  0  0  0  0  0  0
    6.1225    1.0827   -1.1361 H   0  0  0  0  0  0  0  0  0  0  0  0
    4.7508   -0.9531   -0.8647 H   0  0  0  0  0  0  0  0  0  0  0  0
    1.9851   -3.5898   -0.4567 H   0  0  0  0  0  0  0  0  0  0  0  0
   -2.0633   -4.4345   -0.0196 H   0  0  0  0  0  0  0  0  0  0  0  0
  1  2  1  0
  2  3  2  0
  3  4  1  0
  4  5  2  0
  5  6  1  0
  6  7  2  0
  6  8  1  0
  8  9  2  0
  9 10  1  0
  9 11  1  0
 11 12  2  0
 12 13  1  0
 13 14  2  0
 14 15  1  0
 15 16  2  0
 16 17  1  0
 17 18  2  0
 18 19  1  0
 19 20  1  0
 20 21  2  0
 21 22  1  0
 22 23  2  0
  7  2  1  0
 18  8  1  0
 16 11  1  0
 23 19  1  0
  1 24  1  0
  1 25  1  0
  1 26  1  0
  3 27  1  0
  4 28  1  0
  5 29  1  0
  7 30  1  0
 10 31  1  0
 12 32  1  0
 13 33  1  0
 14 34  1  0
 15 35  1  0
 20 36  1  0
 22 37  1  0
M  END
>  <Unnamed: 0>  (62) 
344

>  <ID>  (62) 
TRAIN_0344

>  <Canonical_Smiles>  (62) 
Cc1cccc(c1)c2c(O)c3ccccc3nc2n4cncn4

>  <Inhibition>  (62) 
76.2

>  <TDC_conf_true_inhibitor>  (62) 
1

>  <TDC_conf_non_inhibitor>  (62) 
0

>  <split>  (62) 
1

$$$$
62
     RDKit          3D

 44 46  0  0  0  0  0  0  0  0999 V2000
    3.8244    0.0707   -2.2500 C   0  0  0  0  0  0  0  0  0  0  0  0
    3.1595   -0.3809   -1.0699 O   0  0  0  0  0  0  0  0  0  0  0  0
    3.0245    0.5744   -0.1089 C   0  0  0  0  0  0  0  0  0  0  0  0
    3.4574    1.7209   -0.1858 O   0  0  0  0  0  0  0  0  0  0  0  0
    2.3332    0.0280    1.1486 C   0  0  0  0  0  0  0  0  0  0  0  0
    2.0782    1.0393    2.1262 O   0  0  0  0  0  0  0  0  0  0  0  0
    1.0479   -0.7390    0.8804 C   0  0  0  0  0  0  0  0  0  0  0  0
    0.9317   -2.0916    1.2612 C   0  0  0  0  0  0  0  0  0  0  0  0
    2.0499   -2.8238    1.9545 C   0  0  0  0  0  0  0  0  0  0  0  0
   -0.1625   -2.8586    1.0505 N   0  0  0  0  0  0  0  0  0  0  0  0
   -1.1796   -2.2220    0.4566 C   0  0  0  0  0  0  0  0  0  0  0  0
   -2.3707   -2.8215    0.1722 N   0  0  0  0  0  0  0  0  0  0  0  0
   -3.2224   -1.9290   -0.4254 C   0  0  0  0  0  0  0  0  0  0  0  0
   -4.5946   -2.3243   -0.8358 C   0  0  0  0  0  0  0  0  0  0  0  0
   -2.5548   -0.7133   -0.5234 C   0  0  0  0  0  0  0  0  0  0  0  0
   -3.1201    0.5410   -1.0960 C   0  0  0  0  0  0  0  0  0  0  0  0
   -1.2354   -0.9030    0.0333 C   0  0  0  0  0  0  0  0  0  0  0  0
   -0.0682   -0.1216    0.2428 C   0  0  0  0  0  0  0  0  0  0  0  0
   -0.0698    1.2725   -0.2129 C   0  0  0  0  0  0  0  0  0  0  0  0
   -0.3351    2.3217    0.6811 C   0  0  0  0  0  0  0  0  0  0  0  0
   -0.3319    3.6499    0.2473 C   0  0  0  0  0  0  0  0  0  0  0  0
   -0.0667    3.9395   -1.0886 C   0  0  0  0  0  0  0  0  0  0  0  0
   -0.0658    5.5738   -1.6258 Cl  0  0  0  0  0  0  0  0  0  0  0  0
    0.1930    2.9138   -1.9942 C   0  0  0  0  0  0  0  0  0  0  0  0
    0.1894    1.5866   -1.5576 C   0  0  0  0  0  0  0  0  0  0  0  0
    4.8555    0.3569   -2.0208 H   0  0  0  0  0  0  0  0  0  0  0  0
    3.2814    0.9059   -2.7034 H   0  0  0  0  0  0  0  0  0  0  0  0
    3.8448   -0.7566   -2.9648 H   0  0  0  0  0  0  0  0  0  0  0  0
    3.0943   -0.6095    1.6065 H   0  0  0  0  0  0  0  0  0  0  0  0
    2.5630    1.8327    1.8226 H   0  0  0  0  0  0  0  0  0  0  0  0
    2.3001   -2.3349    2.9011 H   0  0  0  0  0  0  0  0  0  0  0  0
    1.7570   -3.8540    2.1857 H   0  0  0  0  0  0  0  0  0  0  0  0
    2.9338   -2.8708    1.3110 H   0  0  0  0  0  0  0  0  0  0  0  0
   -2.5678   -3.7867    0.3903 H   0  0  0  0  0  0  0  0  0  0  0  0
   -4.7736   -3.3921   -0.6735 H   0  0  0  0  0  0  0  0  0  0  0  0
   -4.7498   -2.1148   -1.8989 H   0  0  0  0  0  0  0  0  0  0  0  0
   -5.3389   -1.7647   -0.2603 H   0  0  0  0  0  0  0  0  0  0  0  0
   -4.1855    0.4339   -1.3240 H   0  0  0  0  0  0  0  0  0  0  0  0
   -3.0235    1.3698   -0.3889 H   0  0  0  0  0  0  0  0  0  0  0  0
   -2.6096    0.8016   -2.0276 H   0  0  0  0  0  0  0  0  0  0  0  0
   -0.5412    2.1029    1.7281 H   0  0  0  0  0  0  0  0  0  0  0  0
   -0.5357    4.4478    0.9560 H   0  0  0  0  0  0  0  0  0  0  0  0
    0.3978    3.1383   -3.0372 H   0  0  0  0  0  0  0  0  0  0  0  0
    0.3866    0.7908   -2.2737 H   0  0  0  0  0  0  0  0  0  0  0  0
  1  2  1  0
  2  3  1  0
  3  4  2  0
  3  5  1  0
  5  6  1  0
  5  7  1  0
  7  8  2  0
  8  9  1  0
  8 10  1  0
 10 11  2  0
 11 12  1  0
 12 13  1  0
 13 14  1  0
 13 15  2  0
 15 16  1  0
 15 17  1  0
 17 18  2  0
 18 19  1  0
 19 20  2  0
 20 21  1  0
 21 22  2  0
 22 23  1  0
 22 24  1  0
 24 25  2  0
 18  7  1  0
 17 11  1  0
 25 19  1  0
  1 26  1  0
  1 27  1  0
  1 28  1  0
  5 29  1  0
  6 30  1  0
  9 31  1  0
  9 32  1  0
  9 33  1  0
 12 34  1  0
 14 35  1  0
 14 36  1  0
 14 37  1  0
 16 38  1  0
 16 39  1  0
 16 40  1  0
 20 41  1  0
 21 42  1  0
 24 43  1  0
 25 44  1  0
M  END
>  <Unnamed: 0>  (63) 
346

>  <ID>  (63) 
TRAIN_0346

>  <Canonical_Smiles>  (63) 
COC(=O)C(O)c1c(C)nc2[nH]c(C)c(C)c2c1c3ccc(Cl)cc3

>  <Inhibition>  (63) 
63.5

>  <TDC_conf_true_inhibitor>  (63) 
1

>  <TDC_conf_non_inhibitor>  (63) 
0

>  <split>  (63) 
1

$$$$
63
     RDKit          3D

 48 51  0  0  0  0  0  0  0  0999 V2000
    7.6456   -1.4567    0.6522 C   0  0  0  0  0  0  0  0  0  0  0  0
    7.3507    0.2075    0.1142 S   0  0  0  0  0  6  0  0  0  0  0  0
    7.7311    0.3000   -1.2829 O   0  0  0  0  0  0  0  0  0  0  0  0
    7.9170    1.1075    1.1006 O   0  0  0  0  0  0  0  0  0  0  0  0
    5.5838    0.3533    0.2037 C   0  0  0  0  0  0  0  0  0  0  0  0
    4.9841    0.7457    1.3977 C   0  0  0  0  0  0  0  0  0  0  0  0
    3.5921    0.8621    1.4573 C   0  0  0  0  0  0  0  0  0  0  0  0
    2.7759    0.5998    0.3412 C   0  0  0  0  0  0  0  0  0  0  0  0
    3.4166    0.2357   -0.8540 C   0  0  0  0  0  0  0  0  0  0  0  0
    4.8092    0.1115   -0.9292 C   0  0  0  0  0  0  0  0  0  0  0  0
    1.3830    0.7436    0.4625 N   0  0  0  0  0  0  0  0  0  0  0  0
    0.6084    0.9382   -0.7720 C   0  0  0  0  0  0  0  0  0  0  0  0
   -0.7970    1.4188   -0.4314 C   0  0  0  0  0  0  0  0  0  0  0  0
   -1.4772    0.4487    0.5301 C   0  0  0  0  0  0  0  0  0  0  0  0
   -0.6281    0.2681    1.7850 C   0  0  0  0  0  0  0  0  0  0  0  0
    0.7778   -0.1954    1.4257 C   0  0  0  0  0  0  0  0  0  0  0  0
   -2.7428    0.9885    0.9285 O   0  0  0  0  0  0  0  0  0  0  0  0
   -3.7686    0.3260    0.2547 N   0  0  0  0  0  0  0  0  0  0  0  0
   -4.4430   -0.7015    0.8396 C   0  0  0  0  0  0  0  0  0  0  0  0
   -4.2017   -1.3369    1.8486 O   0  0  0  0  0  0  0  0  0  0  0  0
   -5.6272   -0.9072    0.0041 C   0  0  0  0  0  0  0  0  0  0  0  0
   -6.6278   -1.8552    0.0894 C   0  0  0  0  0  0  0  0  0  0  0  0
   -7.6578   -1.7816   -0.8539 C   0  0  0  0  0  0  0  0  0  0  0  0
   -7.6671   -0.7725   -1.8403 C   0  0  0  0  0  0  0  0  0  0  0  0
   -6.6466    0.1820   -1.9019 C   0  0  0  0  0  0  0  0  0  0  0  0
   -5.6361    0.0846   -0.9655 C   0  0  0  0  0  0  0  0  0  0  0  0
   -4.4583    0.9277   -0.7519 C   0  0  0  0  0  0  0  0  0  0  0  0
   -4.2403    1.9555   -1.3646 O   0  0  0  0  0  0  0  0  0  0  0  0
    7.1375   -2.1459   -0.0249 H   0  0  0  0  0  0  0  0  0  0  0  0
    7.2773   -1.5729    1.6732 H   0  0  0  0  0  0  0  0  0  0  0  0
    8.7226   -1.6358    0.6242 H   0  0  0  0  0  0  0  0  0  0  0  0
    5.5801    0.9792    2.2768 H   0  0  0  0  0  0  0  0  0  0  0  0
    3.1379    1.2006    2.3866 H   0  0  0  0  0  0  0  0  0  0  0  0
    2.8451    0.0312   -1.7546 H   0  0  0  0  0  0  0  0  0  0  0  0
    5.2710   -0.1651   -1.8745 H   0  0  0  0  0  0  0  0  0  0  0  0
    0.5487    0.0012   -1.3404 H   0  0  0  0  0  0  0  0  0  0  0  0
    1.0809    1.6966   -1.4084 H   0  0  0  0  0  0  0  0  0  0  0  0
   -1.3906    1.5220   -1.3469 H   0  0  0  0  0  0  0  0  0  0  0  0
   -0.7578    2.4198    0.0180 H   0  0  0  0  0  0  0  0  0  0  0  0
   -1.6011   -0.5298    0.0441 H   0  0  0  0  0  0  0  0  0  0  0  0
   -0.5829    1.2138    2.3414 H   0  0  0  0  0  0  0  0  0  0  0  0
   -1.1055   -0.4543    2.4578 H   0  0  0  0  0  0  0  0  0  0  0  0
    1.3554   -0.2638    2.3547 H   0  0  0  0  0  0  0  0  0  0  0  0
    0.7433   -1.2024    0.9896 H   0  0  0  0  0  0  0  0  0  0  0  0
   -6.6155   -2.6200    0.8596 H   0  0  0  0  0  0  0  0  0  0  0  0
   -8.4685   -2.5081   -0.8246 H   0  0  0  0  0  0  0  0  0  0  0  0
   -8.4849   -0.7341   -2.5584 H   0  0  0  0  0  0  0  0  0  0  0  0
   -6.6486    0.9697   -2.6487 H   0  0  0  0  0  0  0  0  0  0  0  0
  1  2  1  0
  2  3  2  0
  2  4  2  0
  2  5  1  0
  5  6  2  0
  6  7  1  0
  7  8  2  0
  8  9  1  0
  9 10  2  0
  8 11  1  0
 11 12  1  0
 12 13  1  0
 13 14  1  0
 14 15  1  0
 15 16  1  0
 14 17  1  0
 17 18  1  0
 18 19  1  0
 19 20  2  0
 19 21  1  0
 21 22  2  0
 22 23  1  0
 23 24  2  0
 24 25  1  0
 25 26  2  0
 26 27  1  0
 27 28  2  0
 10  5  1  0
 16 11  1  0
 27 18  1  0
 26 21  1  0
  1 29  1  0
  1 30  1  0
  1 31  1  0
  6 32  1  0
  7 33  1  0
  9 34  1  0
 10 35  1  0
 12 36  1  0
 12 37  1  0
 13 38  1  0
 13 39  1  0
 14 40  1  0
 15 41  1  0
 15 42  1  0
 16 43  1  0
 16 44  1  0
 22 45  1  0
 23 46  1  0
 24 47  1  0
 25 48  1  0
M  END
>  <Unnamed: 0>  (64) 
354

>  <ID>  (64) 
TRAIN_0354

>  <Canonical_Smiles>  (64) 
CS(=O)(=O)c1ccc(cc1)N2CCC(CC2)ON3C(=O)c4ccccc4C3=O

>  <Inhibition>  (64) 
9.23

>  <TDC_conf_true_inhibitor>  (64) 
0

>  <TDC_conf_non_inhibitor>  (64) 
1

>  <split>  (64) 
1

$$$$
64
     RDKit          3D

 48 50  0  0  0  0  0  0  0  0999 V2000
   -1.2438    1.4419    2.8257 C   0  0  0  0  0  0  0  0  0  0  0  0
   -1.9552    0.0949    2.8400 C   0  0  0  0  0  0  0  0  0  0  0  0
   -1.3486   -0.9129    1.8540 C   0  0  0  0  0  0  0  0  0  0  0  0
   -1.5955   -0.5380    0.4276 C   0  0  0  0  0  0  0  0  0  0  0  0
   -2.7905   -0.5346   -0.2837 C   0  0  0  0  0  0  0  0  0  0  0  0
   -2.6050    0.1153   -1.4748 N   0  0  0  0  0  0  0  0  0  0  0  0
   -1.3447    0.5053   -1.5382 N   0  0  0  0  0  0  0  0  0  0  0  0
   -0.6766    0.0003   -0.4676 N   0  0  0  0  0  0  0  0  0  0  0  0
    0.7424    0.0695   -0.4374 C   0  0  0  0  0  0  0  0  0  0  0  0
    1.5139   -0.8625    0.2595 C   0  0  0  0  0  0  0  0  0  0  0  0
    2.9121   -0.7654    0.2523 C   0  0  0  0  0  0  0  0  0  0  0  0
    3.5628    0.2500   -0.4598 C   0  0  0  0  0  0  0  0  0  0  0  0
    4.9731    0.2721   -0.4058 N   0  0  0  0  0  0  0  0  0  0  0  0
    5.8275    1.1840   -1.0158 C   0  0  0  0  0  0  0  0  0  0  0  0
    5.4885    2.1362   -1.7042 O   0  0  0  0  0  0  0  0  0  0  0  0
    7.2672    0.8614   -0.7241 C   0  0  0  0  0  0  0  0  0  0  0  0
    8.1906    1.8459   -1.3830 C   0  0  0  0  0  0  0  0  0  0  0  0
    8.0909    1.8335   -2.7268 F   0  0  0  0  0  0  0  0  0  0  0  0
    9.4729    1.5051   -1.0858 F   0  0  0  0  0  0  0  0  0  0  0  0
    8.0136    3.1045   -0.9351 F   0  0  0  0  0  0  0  0  0  0  0  0
    2.7908    1.1580   -1.1824 C   0  0  0  0  0  0  0  0  0  0  0  0
    1.3927    1.0633   -1.1826 C   0  0  0  0  0  0  0  0  0  0  0  0
   -4.0940   -1.0545    0.1188 C   0  0  0  0  0  0  0  0  0  0  0  0
   -4.2788   -1.6644    1.1680 O   0  0  0  0  0  0  0  0  0  0  0  0
   -5.0898   -0.7924   -0.8025 N   0  0  0  0  0  0  0  0  0  0  0  0
   -6.4408   -1.2112   -0.6314 C   0  0  0  0  0  0  0  0  0  0  0  0
   -7.4365   -1.0631   -1.7490 C   0  0  0  0  0  0  0  0  0  0  0  0
   -6.9577   -2.4273   -1.3481 C   0  0  0  0  0  0  0  0  0  0  0  0
   -1.6624    2.0956    3.5976 H   0  0  0  0  0  0  0  0  0  0  0  0
   -0.1742    1.3235    3.0263 H   0  0  0  0  0  0  0  0  0  0  0  0
   -1.3607    1.9469    1.8621 H   0  0  0  0  0  0  0  0  0  0  0  0
   -3.0212    0.2502    2.6404 H   0  0  0  0  0  0  0  0  0  0  0  0
   -1.8813   -0.3233    3.8512 H   0  0  0  0  0  0  0  0  0  0  0  0
   -0.2916   -1.0082    2.0982 H   0  0  0  0  0  0  0  0  0  0  0  0
   -1.7876   -1.9010    2.0380 H   0  0  0  0  0  0  0  0  0  0  0  0
    1.0707   -1.7154    0.7636 H   0  0  0  0  0  0  0  0  0  0  0  0
    3.4818   -1.5112    0.8018 H   0  0  0  0  0  0  0  0  0  0  0  0
    5.3991   -0.4603    0.1492 H   0  0  0  0  0  0  0  0  0  0  0  0
    7.4834   -0.1489   -1.0885 H   0  0  0  0  0  0  0  0  0  0  0  0
    7.4205    0.8800    0.3604 H   0  0  0  0  0  0  0  0  0  0  0  0
    3.2387    1.9566   -1.7663 H   0  0  0  0  0  0  0  0  0  0  0  0
    0.8285    1.7942   -1.7612 H   0  0  0  0  0  0  0  0  0  0  0  0
   -4.8249   -0.2726   -1.6338 H   0  0  0  0  0  0  0  0  0  0  0  0
   -6.8164   -1.0413    0.3763 H   0  0  0  0  0  0  0  0  0  0  0  0
   -8.4509   -0.7842   -1.4871 H   0  0  0  0  0  0  0  0  0  0  0  0
   -7.1014   -0.6698   -2.7012 H   0  0  0  0  0  0  0  0  0  0  0  0
   -6.2892   -2.9524   -2.0202 H   0  0  0  0  0  0  0  0  0  0  0  0
   -7.6421   -3.0732   -0.8103 H   0  0  0  0  0  0  0  0  0  0  0  0
  1  2  1  0
  2  3  1  0
  3  4  1  0
  4  5  2  0
  5  6  1  0
  6  7  2  0
  7  8  1  0
  8  9  1  0
  9 10  2  0
 10 11  1  0
 11 12  2  0
 12 13  1  0
 13 14  1  0
 14 15  2  0
 14 16  1  0
 16 17  1  0
 17 18  1  0
 17 19  1  0
 17 20  1  0
 12 21  1  0
 21 22  2  0
  5 23  1  0
 23 24  2  0
 23 25  1  0
 25 26  1  0
 26 27  1  0
 27 28  1  0
  8  4  1  0
 22  9  1  0
 28 26  1  0
  1 29  1  0
  1 30  1  0
  1 31  1  0
  2 32  1  0
  2 33  1  0
  3 34  1  0
  3 35  1  0
 10 36  1  0
 11 37  1  0
 13 38  1  0
 16 39  1  0
 16 40  1  0
 21 41  1  0
 22 42  1  0
 25 43  1  0
 26 44  1  0
 27 45  1  0
 27 46  1  0
 28 47  1  0
 28 48  1  0
M  END
>  <Unnamed: 0>  (65) 
381

>  <ID>  (65) 
TRAIN_0381

>  <Canonical_Smiles>  (65) 
CCCc1c(nnn1c2ccc(NC(=O)CC(F)(F)F)cc2)C(=O)NC3CC3

>  <Inhibition>  (65) 
12.2

>  <TDC_conf_true_inhibitor>  (65) 
0

>  <TDC_conf_non_inhibitor>  (65) 
1

>  <split>  (65) 
1

$$$$
65
     RDKit          3D

 39 41  0  0  0  0  0  0  0  0999 V2000
    7.2516   -0.8411    0.1025 C   0  0  0  0  0  0  0  0  0  0  0  0
    6.2511   -0.0654   -0.5448 O   0  0  0  0  0  0  0  0  0  0  0  0
    4.9759   -0.1620   -0.0554 C   0  0  0  0  0  0  0  0  0  0  0  0
    4.5735   -0.9456    1.0192 C   0  0  0  0  0  0  0  0  0  0  0  0
    3.2322   -0.9586    1.4262 C   0  0  0  0  0  0  0  0  0  0  0  0
    2.2669   -0.1758    0.7510 C   0  0  0  0  0  0  0  0  0  0  0  0
    0.8590   -0.0257    0.9790 C   0  0  0  0  0  0  0  0  0  0  0  0
    0.2506    0.8362    0.0896 C   0  0  0  0  0  0  0  0  0  0  0  0
   -1.2001    1.2418    0.0305 C   0  0  0  0  0  0  0  0  0  0  0  0
   -1.8925    0.6582   -1.1332 N   0  0  0  0  0  0  0  0  0  0  0  0
   -3.1483    1.3827   -1.4029 C   0  0  0  0  0  0  0  0  0  0  0  0
   -4.2563    1.2212   -0.3274 C   0  0  0  0  0  0  0  0  0  0  0  0
   -4.1316    0.0008    0.4926 N   0  0  0  0  0  0  0  0  0  0  0  0
   -5.4005   -0.3522    1.1183 C   0  0  0  0  0  0  0  0  0  0  0  0
   -3.5919   -1.1024   -0.3134 C   0  0  0  0  0  0  0  0  0  0  0  0
   -2.2031   -0.7760   -0.9317 C   0  0  0  0  0  0  0  0  0  0  0  0
    1.3825    1.4867   -1.0143 S   0  0  0  0  0  0  0  0  0  0  0  0
    2.6901    0.6049   -0.3249 C   0  0  0  0  0  0  0  0  0  0  0  0
    4.0372    0.6200   -0.7362 C   0  0  0  0  0  0  0  0  0  0  0  0
    7.3693   -0.5399    1.1486 H   0  0  0  0  0  0  0  0  0  0  0  0
    8.2017   -0.6530   -0.4066 H   0  0  0  0  0  0  0  0  0  0  0  0
    7.0361   -1.9115    0.0201 H   0  0  0  0  0  0  0  0  0  0  0  0
    5.2736   -1.5642    1.5707 H   0  0  0  0  0  0  0  0  0  0  0  0
    2.9330   -1.5770    2.2687 H   0  0  0  0  0  0  0  0  0  0  0  0
    0.3164   -0.5381    1.7641 H   0  0  0  0  0  0  0  0  0  0  0  0
   -1.6902    0.9828    0.9770 H   0  0  0  0  0  0  0  0  0  0  0  0
   -1.2255    2.3388   -0.0324 H   0  0  0  0  0  0  0  0  0  0  0  0
   -3.5413    1.0109   -2.3592 H   0  0  0  0  0  0  0  0  0  0  0  0
   -2.9486    2.4485   -1.5710 H   0  0  0  0  0  0  0  0  0  0  0  0
   -4.2180    2.0827    0.3502 H   0  0  0  0  0  0  0  0  0  0  0  0
   -5.2256    1.2546   -0.8418 H   0  0  0  0  0  0  0  0  0  0  0  0
   -6.1727   -0.5980    0.3804 H   0  0  0  0  0  0  0  0  0  0  0  0
   -5.2741   -1.2139    1.7829 H   0  0  0  0  0  0  0  0  0  0  0  0
   -5.7657    0.4739    1.7384 H   0  0  0  0  0  0  0  0  0  0  0  0
   -3.4868   -2.0029    0.3040 H   0  0  0  0  0  0  0  0  0  0  0  0
   -4.2918   -1.3474   -1.1241 H   0  0  0  0  0  0  0  0  0  0  0  0
   -2.1586   -1.2610   -1.9155 H   0  0  0  0  0  0  0  0  0  0  0  0
   -1.4239   -1.2676   -0.3379 H   0  0  0  0  0  0  0  0  0  0  0  0
    4.3467    1.2345   -1.5770 H   0  0  0  0  0  0  0  0  0  0  0  0
  1  2  1  0
  2  3  1  0
  3  4  2  0
  4  5  1  0
  5  6  2  0
  6  7  1  0
  7  8  2  0
  8  9  1  0
  9 10  1  0
 10 11  1  0
 11 12  1  0
 12 13  1  0
 13 14  1  0
 13 15  1  0
 15 16  1  0
  8 17  1  0
 17 18  1  0
 18 19  2  0
 19  3  1  0
 18  6  1  0
 16 10  1  0
  1 20  1  0
  1 21  1  0
  1 22  1  0
  4 23  1  0
  5 24  1  0
  7 25  1  0
  9 26  1  0
  9 27  1  0
 11 28  1  0
 11 29  1  0
 12 30  1  0
 12 31  1  0
 14 32  1  0
 14 33  1  0
 14 34  1  0
 15 35  1  0
 15 36  1  0
 16 37  1  0
 16 38  1  0
 19 39  1  0
M  END
>  <Unnamed: 0>  (66) 
408

>  <ID>  (66) 
TRAIN_0408

>  <Canonical_Smiles>  (66) 
COc1ccc2cc(CN3CCN(C)CC3)sc2c1

>  <Inhibition>  (66) 
42.5

>  <TDC_conf_true_inhibitor>  (66) 
0

>  <TDC_conf_non_inhibitor>  (66) 
1

>  <split>  (66) 
1

$$$$
66
     RDKit          3D

 35 38  0  0  0  0  0  0  0  0999 V2000
    6.9219   -0.5315    1.3059 O   0  0  0  0  0  1  0  0  0  0  0  0
    6.2033    0.4743    1.2491 N   0  0  0  0  0  4  0  0  0  0  0  0
    6.4912    1.5944    1.6980 O   0  0  0  0  0  0  0  0  0  0  0  0
    4.9100    0.3487    0.6139 C   0  0  0  0  0  0  0  0  0  0  0  0
    3.9538    1.3364    0.4555 C   0  0  0  0  0  0  0  0  0  0  0  0
    2.9363    0.7093   -0.1972 N   0  0  0  0  0  0  0  0  0  0  0  0
    1.6727    1.2649   -0.6211 C   0  0  0  0  0  0  0  0  0  0  0  0
    1.0261    0.3540   -1.6540 C   0  0  0  0  0  0  0  0  0  0  0  0
    1.1555   -1.1264   -1.2491 C   0  0  2  0  0  0  0  0  0  0  0  0
    0.3375   -1.5521   -0.0183 C   0  0  0  0  0  0  0  0  0  0  0  0
   -1.0697   -1.2483   -0.1041 N   0  0  0  0  0  0  0  0  0  0  0  0
   -1.8385   -0.5861    0.8056 C   0  0  0  0  0  0  0  0  0  0  0  0
   -3.0792   -0.5442    0.2125 C   0  0  0  0  0  0  0  0  0  0  0  0
   -3.0189   -1.1626   -1.0079 N   0  0  0  0  0  0  0  0  0  0  0  0
   -1.7792   -1.5996   -1.1880 N   0  0  0  0  0  0  0  0  0  0  0  0
   -4.3230    0.0414    0.7058 C   0  0  0  0  0  0  0  0  0  0  0  0
   -5.5361    0.0119   -0.0469 C   0  0  0  0  0  0  0  0  0  0  0  0
   -6.5766    0.6258    0.6165 C   0  0  0  0  0  0  0  0  0  0  0  0
   -6.0951    1.2359    2.1403 S   0  0  0  0  0  0  0  0  0  0  0  0
   -4.4907    0.6777    1.9177 C   0  0  0  0  0  0  0  0  0  0  0  0
    2.5335   -1.4912   -1.0301 O   0  0  0  0  0  0  0  0  0  0  0  0
    3.2920   -0.5957   -0.4027 C   0  0  0  0  0  0  0  0  0  0  0  0
    4.4837   -0.8529    0.0771 N   0  0  0  0  0  0  0  0  0  0  0  0
    3.9323    2.3794    0.7415 H   0  0  0  0  0  0  0  0  0  0  0  0
    1.8537    2.2619   -1.0350 H   0  0  0  0  0  0  0  0  0  0  0  0
    1.0480    1.3597    0.2733 H   0  0  0  0  0  0  0  0  0  0  0  0
    1.5552    0.4910   -2.6070 H   0  0  0  0  0  0  0  0  0  0  0  0
   -0.0148    0.6457   -1.8252 H   0  0  0  0  0  0  0  0  0  0  0  0
    0.8229   -1.7275   -2.1049 H   0  0  0  0  0  0  0  0  0  0  0  0
    0.7294   -1.0886    0.8945 H   0  0  0  0  0  0  0  0  0  0  0  0
    0.4233   -2.6355    0.1309 H   0  0  0  0  0  0  0  0  0  0  0  0
   -1.4609   -0.2252    1.7500 H   0  0  0  0  0  0  0  0  0  0  0  0
   -5.6442   -0.4382   -1.0273 H   0  0  0  0  0  0  0  0  0  0  0  0
   -7.5975    0.7449    0.2798 H   0  0  0  0  0  0  0  0  0  0  0  0
   -3.7581    0.8480    2.6937 H   0  0  0  0  0  0  0  0  0  0  0  0
  1  2  1  0
  2  3  2  0
  2  4  1  0
  4  5  2  0
  5  6  1  0
  6  7  1  0
  7  8  1  0
  8  9  1  0
  9 10  1  0
 10 11  1  0
 11 12  1  0
 12 13  2  0
 13 14  1  0
 14 15  2  0
 13 16  1  0
 16 17  1  0
 17 18  2  0
 18 19  1  0
 19 20  1  0
  9 21  1  0
 21 22  1  0
 22 23  2  0
 23  4  1  0
 22  6  1  0
 15 11  1  0
 20 16  2  0
  5 24  1  0
  7 25  1  0
  7 26  1  0
  8 27  1  0
  8 28  1  0
  9 29  1  6
 10 30  1  0
 10 31  1  0
 12 32  1  0
 17 33  1  0
 18 34  1  0
 20 35  1  0
M  CHG  2   1  -1   2   1
M  END
>  <Unnamed: 0>  (67) 
415

>  <ID>  (67) 
TRAIN_0415

>  <Canonical_Smiles>  (67) 
[O-][N+](=O)c1cn2CC[C@H](Cn3cc(nn3)c4ccsc4)Oc2n1

>  <Inhibition>  (67) 
28.6

>  <TDC_conf_true_inhibitor>  (67) 
0

>  <TDC_conf_non_inhibitor>  (67) 
1

>  <split>  (67) 
1

$$$$
67
     RDKit          3D

 41 42  0  0  0  0  0  0  0  0999 V2000
    5.4201   -1.9290   -0.4588 C   0  0  0  0  0  0  0  0  0  0  0  0
    4.4261   -1.0273    0.2466 C   0  0  0  0  0  0  0  0  0  0  0  0
    3.3667   -0.7267   -0.6706 O   0  0  0  0  0  0  0  0  0  0  0  0
    2.3772    0.0590   -0.1448 C   0  0  0  0  0  0  0  0  0  0  0  0
    2.3841    0.5075    0.9930 O   0  0  0  0  0  0  0  0  0  0  0  0
    1.3255    0.2986   -1.1992 C   0  0  0  0  0  0  0  0  0  0  0  0
    0.0937    0.8763   -0.6699 N   0  0  0  0  0  0  0  0  0  0  0  0
   -0.2337    2.2001   -0.8635 C   0  0  0  0  0  0  0  0  0  0  0  0
   -1.4787    2.4191   -0.3313 C   0  0  0  0  0  0  0  0  0  0  0  0
   -2.2796    3.6763   -0.2905 C   0  0  0  0  0  0  0  0  0  0  0  0
   -3.4227    3.5744    0.7305 C   0  0  0  0  0  0  0  0  0  0  0  0
   -4.1730    2.2403    0.6081 C   0  0  0  0  0  0  0  0  0  0  0  0
   -3.2575    1.0341    0.8779 C   0  0  0  0  0  0  0  0  0  0  0  0
   -1.9307    1.1779    0.1942 C   0  0  0  0  0  0  0  0  0  0  0  0
   -0.9334    0.2203    0.0003 C   0  0  0  0  0  0  0  0  0  0  0  0
   -0.9894   -1.1678    0.4403 C   0  0  0  0  0  0  0  0  0  0  0  0
   -1.9545   -1.7029    0.9721 O   0  0  0  0  0  0  0  0  0  0  0  0
    0.1845   -1.8101    0.1848 O   0  0  0  0  0  0  0  0  0  0  0  0
    0.2612   -3.1766    0.6155 C   0  0  0  0  0  0  0  0  0  0  0  0
   -0.2699   -4.0944   -0.4690 C   0  0  0  0  0  0  0  0  0  0  0  0
    4.9339   -2.8518   -0.7924 H   0  0  0  0  0  0  0  0  0  0  0  0
    6.2512   -2.1870    0.2034 H   0  0  0  0  0  0  0  0  0  0  0  0
    5.8191   -1.4382   -1.3527 H   0  0  0  0  0  0  0  0  0  0  0  0
    4.0206   -1.5411    1.1255 H   0  0  0  0  0  0  0  0  0  0  0  0
    4.9210   -0.0997    0.5549 H   0  0  0  0  0  0  0  0  0  0  0  0
    1.0608   -0.6278   -1.7172 H   0  0  0  0  0  0  0  0  0  0  0  0
    1.7341    0.9959   -1.9392 H   0  0  0  0  0  0  0  0  0  0  0  0
    0.4455    2.8793   -1.3632 H   0  0  0  0  0  0  0  0  0  0  0  0
   -2.6980    3.8591   -1.2878 H   0  0  0  0  0  0  0  0  0  0  0  0
   -1.6402    4.5307   -0.0414 H   0  0  0  0  0  0  0  0  0  0  0  0
   -4.1175    4.4093    0.5847 H   0  0  0  0  0  0  0  0  0  0  0  0
   -3.0187    3.6666    1.7468 H   0  0  0  0  0  0  0  0  0  0  0  0
   -5.0165    2.2199    1.3076 H   0  0  0  0  0  0  0  0  0  0  0  0
   -4.5944    2.1599   -0.4023 H   0  0  0  0  0  0  0  0  0  0  0  0
   -3.7673    0.1236    0.5447 H   0  0  0  0  0  0  0  0  0  0  0  0
   -3.0862    0.9438    1.9575 H   0  0  0  0  0  0  0  0  0  0  0  0
   -0.2630   -3.3291    1.5658 H   0  0  0  0  0  0  0  0  0  0  0  0
    1.3193   -3.3942    0.7951 H   0  0  0  0  0  0  0  0  0  0  0  0
   -0.1610   -5.1429   -0.1778 H   0  0  0  0  0  0  0  0  0  0  0  0
   -1.3273   -3.8950   -0.6696 H   0  0  0  0  0  0  0  0  0  0  0  0
    0.2686   -3.9306   -1.4083 H   0  0  0  0  0  0  0  0  0  0  0  0
  1  2  1  0
  2  3  1  0
  3  4  1  0
  4  5  2  0
  4  6  1  0
  6  7  1  0
  7  8  1  0
  8  9  2  0
  9 10  1  0
 10 11  1  0
 11 12  1  0
 12 13  1  0
 13 14  1  0
 14 15  2  0
 15 16  1  0
 16 17  2  0
 16 18  1  0
 18 19  1  0
 19 20  1  0
 15  7  1  0
 14  9  1  0
  1 21  1  0
  1 22  1  0
  1 23  1  0
  2 24  1  0
  2 25  1  0
  6 26  1  0
  6 27  1  0
  8 28  1  0
 10 29  1  0
 10 30  1  0
 11 31  1  0
 11 32  1  0
 12 33  1  0
 12 34  1  0
 13 35  1  0
 13 36  1  0
 19 37  1  0
 19 38  1  0
 20 39  1  0
 20 40  1  0
 20 41  1  0
M  END
>  <Unnamed: 0>  (68) 
424

>  <ID>  (68) 
TRAIN_0424

>  <Canonical_Smiles>  (68) 
CCOC(=O)Cn1cc2CCCCc2c1C(=O)OCC

>  <Inhibition>  (68) 
33.8

>  <TDC_conf_true_inhibitor>  (68) 
0

>  <TDC_conf_non_inhibitor>  (68) 
1

>  <split>  (68) 
1

$$$$
68
     RDKit          3D

 36 37  0  0  0  0  0  0  0  0999 V2000
    3.2192    2.8482   -0.9383 C   0  0  0  0  0  0  0  0  0  0  0  0
    1.8447    2.5636   -1.5133 C   0  0  0  0  0  0  0  0  0  0  0  0
    1.6500    1.1482   -1.6522 O   0  0  0  0  0  0  0  0  0  0  0  0
    1.1518    0.5036   -0.5594 C   0  0  0  0  0  0  0  0  0  0  0  0
    0.9425    1.0300    0.5263 O   0  0  0  0  0  0  0  0  0  0  0  0
    0.9533   -0.9621   -0.8602 C   0  0  0  0  0  0  0  0  0  0  0  0
   -0.1955   -1.6449   -0.1993 N   0  0  0  0  0  0  0  0  0  0  0  0
   -0.2917   -3.1087   -0.4422 C   0  0  0  0  0  0  0  0  0  0  0  0
   -0.4792   -3.6847   -1.8190 C   0  0  0  0  0  0  0  0  0  0  0  0
    0.7817   -3.9667   -1.0540 C   0  0  0  0  0  0  0  0  0  0  0  0
   -1.7242   -0.8504   -0.3212 S   0  0  0  0  0  6  0  0  0  0  0  0
   -1.6823   -0.1814   -1.6047 O   0  0  0  0  0  0  0  0  0  0  0  0
   -2.7808   -1.7981   -0.0284 O   0  0  0  0  0  0  0  0  0  0  0  0
   -1.7646    0.3262    1.0047 C   0  0  0  0  0  0  0  0  0  0  0  0
   -1.4754   -0.0965    2.3155 C   0  0  0  0  0  0  0  0  0  0  0  0
   -1.1388   -1.7312    2.7733 Cl  0  0  0  0  0  0  0  0  0  0  0  0
   -1.4733    0.8210    3.3753 C   0  0  0  0  0  0  0  0  0  0  0  0
   -1.7749    2.1542    3.1422 C   0  0  0  0  0  0  0  0  0  0  0  0
   -1.7720    3.2758    4.4449 Cl  0  0  0  0  0  0  0  0  0  0  0  0
   -2.0994    2.5800    1.8621 C   0  0  0  0  0  0  0  0  0  0  0  0
   -2.1053    1.6722    0.7917 C   0  0  0  0  0  0  0  0  0  0  0  0
   -2.5915    2.3582   -0.7180 Cl  0  0  0  0  0  0  0  0  0  0  0  0
    3.3214    2.4235    0.0653 H   0  0  0  0  0  0  0  0  0  0  0  0
    3.9974    2.3909   -1.5582 H   0  0  0  0  0  0  0  0  0  0  0  0
    3.4004    3.9252   -0.8818 H   0  0  0  0  0  0  0  0  0  0  0  0
    1.7673    2.9969   -2.5158 H   0  0  0  0  0  0  0  0  0  0  0  0
    1.0532    3.0163   -0.9049 H   0  0  0  0  0  0  0  0  0  0  0  0
    0.8647   -1.0915   -1.9454 H   0  0  0  0  0  0  0  0  0  0  0  0
    1.8817   -1.4478   -0.5378 H   0  0  0  0  0  0  0  0  0  0  0  0
   -0.8668   -3.5846    0.3526 H   0  0  0  0  0  0  0  0  0  0  0  0
   -1.2040   -4.4837   -1.9295 H   0  0  0  0  0  0  0  0  0  0  0  0
   -0.4279   -3.0212   -2.6736 H   0  0  0  0  0  0  0  0  0  0  0  0
    1.6983   -3.5312   -1.4271 H   0  0  0  0  0  0  0  0  0  0  0  0
    0.9137   -4.9647   -0.6492 H   0  0  0  0  0  0  0  0  0  0  0  0
   -1.2392    0.4906    4.3853 H   0  0  0  0  0  0  0  0  0  0  0  0
   -2.3546    3.6248    1.6942 H   0  0  0  0  0  0  0  0  0  0  0  0
  1  2  1  0
  2  3  1  0
  3  4  1  0
  4  5  2  0
  4  6  1  0
  6  7  1  0
  7  8  1  0
  8  9  1  0
  9 10  1  0
  7 11  1  0
 11 12  2  0
 11 13  2  0
 11 14  1  0
 14 15  2  0
 15 16  1  0
 15 17  1  0
 17 18  2  0
 18 19  1  0
 18 20  1  0
 20 21  2  0
 21 22  1  0
 10  8  1  0
 21 14  1  0
  1 23  1  0
  1 24  1  0
  1 25  1  0
  2 26  1  0
  2 27  1  0
  6 28  1  0
  6 29  1  0
  8 30  1  0
  9 31  1  0
  9 32  1  0
 10 33  1  0
 10 34  1  0
 17 35  1  0
 20 36  1  0
M  END
>  <Unnamed: 0>  (69) 
446

>  <ID>  (69) 
TRAIN_0446

>  <Canonical_Smiles>  (69) 
CCOC(=O)CN(C1CC1)S(=O)(=O)c2c(Cl)cc(Cl)cc2Cl

>  <Inhibition>  (69) 
38.6

>  <TDC_conf_true_inhibitor>  (69) 
1

>  <TDC_conf_non_inhibitor>  (69) 
0

>  <split>  (69) 
1

$$$$
69
     RDKit          3D

 39 40  0  0  0  0  0  0  0  0999 V2000
    2.8525   -0.4575    1.3807 C   0  0  0  0  0  0  0  0  0  0  0  0
    3.0096   -0.0052   -0.0141 N   0  0  0  0  0  0  0  0  0  0  0  0
    4.3865    0.3257   -0.4470 C   0  0  0  0  0  0  0  0  0  0  0  0
    5.5605    0.5160    0.4738 C   0  0  0  0  0  0  0  0  0  0  0  0
    5.5021   -0.6820   -0.4301 C   0  0  0  0  0  0  0  0  0  0  0  0
    2.1407   -0.9117   -1.1872 S   0  0  0  0  0  6  0  0  0  0  0  0
    2.3998   -0.3536   -2.4987 O   0  0  0  0  0  0  0  0  0  0  0  0
    2.3607   -2.3170   -0.9088 O   0  0  0  0  0  0  0  0  0  0  0  0
    0.4532   -0.5236   -0.7902 C   0  0  0  0  0  0  0  0  0  0  0  0
    0.0096    0.7907   -0.9300 C   0  0  0  0  0  0  0  0  0  0  0  0
   -1.3161    1.1113   -0.6201 C   0  0  0  0  0  0  0  0  0  0  0  0
   -2.2196    0.1304   -0.1719 C   0  0  0  0  0  0  0  0  0  0  0  0
   -1.7393   -1.1912   -0.0507 C   0  0  0  0  0  0  0  0  0  0  0  0
   -0.4165   -1.5214   -0.3580 C   0  0  0  0  0  0  0  0  0  0  0  0
   -3.6857    0.4505    0.1747 C   0  0  0  0  0  0  0  0  0  0  0  0
   -3.9630    0.0825    1.6484 C   0  0  0  0  0  0  0  0  0  0  0  0
   -4.0590    1.9399   -0.0012 C   0  0  0  0  0  0  0  0  0  0  0  0
   -4.6249   -0.3665   -0.7387 C   0  0  0  0  0  0  0  0  0  0  0  0
    3.4283   -1.3667    1.5742 H   0  0  0  0  0  0  0  0  0  0  0  0
    1.8031   -0.6469    1.6207 H   0  0  0  0  0  0  0  0  0  0  0  0
    3.1850    0.3304    2.0637 H   0  0  0  0  0  0  0  0  0  0  0  0
    4.3579    0.9936   -1.3082 H   0  0  0  0  0  0  0  0  0  0  0  0
    6.2672    1.3009    0.2274 H   0  0  0  0  0  0  0  0  0  0  0  0
    5.4567    0.3463    1.5369 H   0  0  0  0  0  0  0  0  0  0  0  0
    6.1624   -0.7104   -1.2895 H   0  0  0  0  0  0  0  0  0  0  0  0
    5.3168   -1.6534    0.0122 H   0  0  0  0  0  0  0  0  0  0  0  0
    0.6869    1.5665   -1.2809 H   0  0  0  0  0  0  0  0  0  0  0  0
   -1.6195    2.1475   -0.7443 H   0  0  0  0  0  0  0  0  0  0  0  0
   -2.3992   -1.9896    0.2839 H   0  0  0  0  0  0  0  0  0  0  0  0
   -0.0820   -2.5515   -0.2595 H   0  0  0  0  0  0  0  0  0  0  0  0
   -4.9917    0.3343    1.9319 H   0  0  0  0  0  0  0  0  0  0  0  0
   -3.2891    0.6234    2.3234 H   0  0  0  0  0  0  0  0  0  0  0  0
   -3.8315   -0.9879    1.8407 H   0  0  0  0  0  0  0  0  0  0  0  0
   -3.9261    2.2696   -1.0382 H   0  0  0  0  0  0  0  0  0  0  0  0
   -5.1092    2.1175    0.2604 H   0  0  0  0  0  0  0  0  0  0  0  0
   -3.4528    2.5867    0.6437 H   0  0  0  0  0  0  0  0  0  0  0  0
   -4.5056   -1.4461   -0.5966 H   0  0  0  0  0  0  0  0  0  0  0  0
   -5.6763   -0.1311   -0.5362 H   0  0  0  0  0  0  0  0  0  0  0  0
   -4.4324   -0.1506   -1.7963 H   0  0  0  0  0  0  0  0  0  0  0  0
  1  2  1  0
  2  3  1  0
  3  4  1  0
  4  5  1  0
  2  6  1  0
  6  7  2  0
  6  8  2  0
  6  9  1  0
  9 10  2  0
 10 11  1  0
 11 12  2  0
 12 13  1  0
 13 14  2  0
 12 15  1  0
 15 16  1  0
 15 17  1  0
 15 18  1  0
  5  3  1  0
 14  9  1  0
  1 19  1  0
  1 20  1  0
  1 21  1  0
  3 22  1  0
  4 23  1  0
  4 24  1  0
  5 25  1  0
  5 26  1  0
 10 27  1  0
 11 28  1  0
 13 29  1  0
 14 30  1  0
 16 31  1  0
 16 32  1  0
 16 33  1  0
 17 34  1  0
 17 35  1  0
 17 36  1  0
 18 37  1  0
 18 38  1  0
 18 39  1  0
M  END
>  <Unnamed: 0>  (70) 
672

>  <ID>  (70) 
TRAIN_0672

>  <Canonical_Smiles>  (70) 
CN(C1CC1)S(=O)(=O)c2ccc(cc2)C(C)(C)C

>  <Inhibition>  (70) 
11.2

>  <TDC_conf_true_inhibitor>  (70) 
0

>  <TDC_conf_non_inhibitor>  (70) 
1

>  <split>  (70) 
1

$$$$
70
     RDKit          3D

 33 34  0  0  0  0  0  0  0  0999 V2000
    4.5763    0.5921   -0.3023 C   0  0  0  0  0  0  0  0  0  0  0  0
    4.0854   -0.6412    0.4324 C   0  0  0  0  0  0  0  0  0  0  0  0
    2.7497   -0.9651    0.0173 O   0  0  0  0  0  0  0  0  0  0  0  0
    1.7547   -0.3287    0.6840 C   0  0  0  0  0  0  0  0  0  0  0  0
    1.8926    0.4796    1.5850 O   0  0  0  0  0  0  0  0  0  0  0  0
    0.4494   -0.7519    0.1397 C   0  0  0  0  0  0  0  0  0  0  0  0
    0.2709   -2.0607   -0.3318 C   0  0  0  0  0  0  0  0  0  0  0  0
   -0.9793   -2.4779   -0.7748 C   0  0  0  0  0  0  0  0  0  0  0  0
   -1.1555   -3.8833   -1.2744 C   0  0  0  0  0  0  0  0  0  0  0  0
   -2.0740   -1.6974   -0.7724 N   0  0  0  0  0  0  0  0  0  0  0  0
   -1.9019   -0.4395   -0.3179 C   0  0  0  0  0  0  0  0  0  0  0  0
   -2.9062    0.4750   -0.2269 N   0  0  0  0  0  0  0  0  0  0  0  0
   -2.3362    1.5536    0.2495 C   0  0  0  0  0  0  0  0  0  0  0  0
   -3.1776    3.0266    0.6155 S   0  0  0  0  0  0  0  0  0  0  0  0
   -4.8717    2.5571    0.1936 C   0  0  0  0  0  0  0  0  0  0  0  0
   -0.9821    1.3886    0.4311 N   0  0  0  0  0  0  0  0  0  0  0  0
   -0.0427    2.4179    0.8118 C   0  0  0  0  0  0  0  0  0  0  0  0
   -0.6841    0.0741    0.1242 C   0  0  0  0  0  0  0  0  0  0  0  0
    5.6138    0.8142   -0.0372 H   0  0  0  0  0  0  0  0  0  0  0  0
    4.5119    0.4453   -1.3855 H   0  0  0  0  0  0  0  0  0  0  0  0
    3.9599    1.4641   -0.0622 H   0  0  0  0  0  0  0  0  0  0  0  0
    4.7166   -1.4985    0.1764 H   0  0  0  0  0  0  0  0  0  0  0  0
    4.1436   -0.5110    1.5191 H   0  0  0  0  0  0  0  0  0  0  0  0
    1.1014   -2.7623   -0.3388 H   0  0  0  0  0  0  0  0  0  0  0  0
   -0.9303   -4.5983   -0.4768 H   0  0  0  0  0  0  0  0  0  0  0  0
   -2.1850   -4.0543   -1.6053 H   0  0  0  0  0  0  0  0  0  0  0  0
   -0.4903   -4.0690   -2.1235 H   0  0  0  0  0  0  0  0  0  0  0  0
   -4.9464    2.2875   -0.8636 H   0  0  0  0  0  0  0  0  0  0  0  0
   -5.2050    1.7171    0.8095 H   0  0  0  0  0  0  0  0  0  0  0  0
   -5.5354    3.4057    0.3803 H   0  0  0  0  0  0  0  0  0  0  0  0
    0.8772    2.2932    0.2363 H   0  0  0  0  0  0  0  0  0  0  0  0
    0.1379    2.3402    1.8860 H   0  0  0  0  0  0  0  0  0  0  0  0
   -0.4372    3.4073    0.5724 H   0  0  0  0  0  0  0  0  0  0  0  0
  1  2  1  0
  2  3  1  0
  3  4  1  0
  4  5  2  0
  4  6  1  0
  6  7  2  0
  7  8  1  0
  8  9  1  0
  8 10  2  0
 10 11  1  0
 11 12  1  0
 12 13  2  0
 13 14  1  0
 14 15  1  0
 13 16  1  0
 16 17  1  0
 16 18  1  0
 18  6  1  0
 18 11  2  0
  1 19  1  0
  1 20  1  0
  1 21  1  0
  2 22  1  0
  2 23  1  0
  7 24  1  0
  9 25  1  0
  9 26  1  0
  9 27  1  0
 15 28  1  0
 15 29  1  0
 15 30  1  0
 17 31  1  0
 17 32  1  0
 17 33  1  0
M  END
>  <Unnamed: 0>  (71) 
466

>  <ID>  (71) 
TRAIN_0466

>  <Canonical_Smiles>  (71) 
CCOC(=O)c1cc(C)nc2nc(SC)n(C)c12

>  <Inhibition>  (71) 
12.1

>  <TDC_conf_true_inhibitor>  (71) 
0

>  <TDC_conf_non_inhibitor>  (71) 
1

>  <split>  (71) 
1

$$$$
71
     RDKit          3D

 34 36  0  0  0  0  0  0  0  0999 V2000
    1.3299   -1.8906   -2.0560 O   0  0  0  0  0  0  0  0  0  0  0  0
    0.0219   -1.7785   -1.7914 C   0  0  0  0  0  0  0  0  0  0  0  0
   -0.7887   -2.5542   -2.2662 O   0  0  0  0  0  0  0  0  0  0  0  0
   -0.3159   -0.6254   -0.9481 C   0  0  0  0  0  0  0  0  0  0  0  0
    0.4469    0.1127   -0.1173 C   0  0  0  0  0  0  0  0  0  0  0  0
   -0.3548    1.2378    0.4860 C   0  0  0  0  0  0  0  0  0  0  0  0
   -1.5404    1.3196   -0.4842 C   0  0  2  0  0  0  0  0  0  0  0  0
   -2.7821    2.0052    0.0822 C   0  0  0  0  0  0  0  0  0  0  0  0
   -3.7179    1.0985    0.8146 C   0  0  0  0  0  0  0  0  0  0  0  0
   -3.6459   -0.2369    0.7679 C   0  0  0  0  0  0  0  0  0  0  0  0
   -2.6199   -0.9933   -0.0184 C   0  0  0  0  0  0  0  0  0  0  0  0
   -1.7458   -0.1319   -0.9507 C   0  0  2  0  0  0  0  0  0  0  0  0
    1.8572   -0.0528    0.2332 C   0  0  0  0  0  0  0  0  0  0  0  0
    2.7697    0.9888    0.0291 C   0  0  0  0  0  0  0  0  0  0  0  0
    4.1076    0.8226    0.3812 C   0  0  0  0  0  0  0  0  0  0  0  0
    4.9696    1.8271    0.1749 F   0  0  0  0  0  0  0  0  0  0  0  0
    4.5629   -0.3613    0.9415 C   0  0  0  0  0  0  0  0  0  0  0  0
    3.6556   -1.3893    1.1485 C   0  0  0  0  0  0  0  0  0  0  0  0
    4.0765   -2.5389    1.6922 F   0  0  0  0  0  0  0  0  0  0  0  0
    2.3130   -1.2474    0.8053 C   0  0  0  0  0  0  0  0  0  0  0  0
    1.3902   -2.6746   -2.6389 H   0  0  0  0  0  0  0  0  0  0  0  0
   -0.6623    0.9831    1.5066 H   0  0  0  0  0  0  0  0  0  0  0  0
    0.1844    2.1900    0.5064 H   0  0  0  0  0  0  0  0  0  0  0  0
   -1.2069    1.9188   -1.3470 H   0  0  0  0  0  0  0  0  0  0  0  0
   -3.3469    2.4581   -0.7425 H   0  0  0  0  0  0  0  0  0  0  0  0
   -2.4816    2.8272    0.7426 H   0  0  0  0  0  0  0  0  0  0  0  0
   -4.5054    1.5688    1.3996 H   0  0  0  0  0  0  0  0  0  0  0  0
   -4.3653   -0.8287    1.3301 H   0  0  0  0  0  0  0  0  0  0  0  0
   -3.1330   -1.7503   -0.6250 H   0  0  0  0  0  0  0  0  0  0  0  0
   -2.0049   -1.5519    0.6996 H   0  0  0  0  0  0  0  0  0  0  0  0
   -2.1694   -0.1253   -1.9628 H   0  0  0  0  0  0  0  0  0  0  0  0
    2.4608    1.9300   -0.4161 H   0  0  0  0  0  0  0  0  0  0  0  0
    5.6049   -0.4807    1.2118 H   0  0  0  0  0  0  0  0  0  0  0  0
    1.6357   -2.0764    0.9890 H   0  0  0  0  0  0  0  0  0  0  0  0
  1  2  1  0
  2  3  2  0
  2  4  1  0
  4  5  2  0
  5  6  1  0
  6  7  1  0
  7  8  1  0
  8  9  1  0
  9 10  2  0
 10 11  1  0
 11 12  1  0
  5 13  1  0
 13 14  2  0
 14 15  1  0
 15 16  1  0
 15 17  2  0
 17 18  1  0
 18 19  1  0
 18 20  2  0
 12  4  1  0
 12  7  1  0
 20 13  1  0
  1 21  1  0
  6 22  1  0
  6 23  1  0
  7 24  1  6
  8 25  1  0
  8 26  1  0
  9 27  1  0
 10 28  1  0
 11 29  1  0
 11 30  1  0
 12 31  1  6
 14 32  1  0
 17 33  1  0
 20 34  1  0
M  END
>  <Unnamed: 0>  (72) 
473

>  <ID>  (72) 
TRAIN_0473

>  <Canonical_Smiles>  (72) 
OC(=O)C1=C(C[C@@H]2CC=CC[C@H]12)c3cc(F)cc(F)c3

>  <Inhibition>  (72) 
15.1

>  <TDC_conf_true_inhibitor>  (72) 
0

>  <TDC_conf_non_inhibitor>  (72) 
1

>  <split>  (72) 
1

$$$$
72
     RDKit          3D

 35 36  0  0  0  0  0  0  0  0999 V2000
    4.3536   -0.9459    1.4021 C   0  0  0  0  0  0  0  0  0  0  0  0
    3.7865   -1.0875    0.0037 C   0  0  0  0  0  0  0  0  0  0  0  0
    2.5431   -0.3794   -0.0488 O   0  0  0  0  0  0  0  0  0  0  0  0
    1.9255   -0.4593   -1.2510 C   0  0  0  0  0  0  0  0  0  0  0  0
    2.3636   -0.9194   -2.2904 O   0  0  0  0  0  0  0  0  0  0  0  0
    0.6494    0.2590   -1.1563 C   0  0  0  0  0  0  0  0  0  0  0  0
    0.5353    1.4137   -1.9332 C   0  0  0  0  0  0  0  0  0  0  0  0
   -0.6259    2.1542   -1.8299 C   0  0  0  0  0  0  0  0  0  0  0  0
   -0.8063    3.4046   -2.6368 C   0  0  0  0  0  0  0  0  0  0  0  0
   -1.6288    1.7978   -0.9962 N   0  0  0  0  0  0  0  0  0  0  0  0
   -1.5133    0.6606   -0.2583 C   0  0  0  0  0  0  0  0  0  0  0  0
   -2.5762    0.3360    0.6078 N   0  0  0  0  0  0  0  0  0  0  0  0
   -3.7102    1.2485    0.6492 C   0  0  0  0  0  0  0  0  0  0  0  0
   -2.5533   -0.7691    1.4333 C   0  0  0  0  0  0  0  0  0  0  0  0
   -3.4591   -1.0094    2.2340 O   0  0  0  0  0  0  0  0  0  0  0  0
   -1.4534   -1.6084    1.3118 N   0  0  0  0  0  0  0  0  0  0  0  0
   -1.4570   -2.8074    2.1329 C   0  0  0  0  0  0  0  0  0  0  0  0
   -0.3973   -1.4076    0.4336 C   0  0  0  0  0  0  0  0  0  0  0  0
    0.4936   -2.2323    0.2510 O   0  0  0  0  0  0  0  0  0  0  0  0
   -0.3983   -0.1511   -0.3273 C   0  0  0  0  0  0  0  0  0  0  0  0
    3.6446   -1.3186    2.1504 H   0  0  0  0  0  0  0  0  0  0  0  0
    5.2945   -1.4953    1.4994 H   0  0  0  0  0  0  0  0  0  0  0  0
    4.5354    0.1072    1.6400 H   0  0  0  0  0  0  0  0  0  0  0  0
    4.4877   -0.6632   -0.7245 H   0  0  0  0  0  0  0  0  0  0  0  0
    3.6170   -2.1468   -0.2213 H   0  0  0  0  0  0  0  0  0  0  0  0
    1.3418    1.7238   -2.5925 H   0  0  0  0  0  0  0  0  0  0  0  0
   -1.7969    3.8374   -2.4661 H   0  0  0  0  0  0  0  0  0  0  0  0
   -0.0544    4.1485   -2.3570 H   0  0  0  0  0  0  0  0  0  0  0  0
   -0.7125    3.1823   -3.7042 H   0  0  0  0  0  0  0  0  0  0  0  0
   -3.3720    2.2317    0.9941 H   0  0  0  0  0  0  0  0  0  0  0  0
   -4.4900    0.8984    1.3322 H   0  0  0  0  0  0  0  0  0  0  0  0
   -4.1491    1.3315   -0.3514 H   0  0  0  0  0  0  0  0  0  0  0  0
   -2.3946   -3.3528    1.9719 H   0  0  0  0  0  0  0  0  0  0  0  0
   -0.6177   -3.4732    1.9113 H   0  0  0  0  0  0  0  0  0  0  0  0
   -1.4052   -2.5082    3.1863 H   0  0  0  0  0  0  0  0  0  0  0  0
  1  2  1  0
  2  3  1  0
  3  4  1  0
  4  5  2  0
  4  6  1  0
  6  7  2  0
  7  8  1  0
  8  9  1  0
  8 10  2  0
 10 11  1  0
 11 12  1  0
 12 13  1  0
 12 14  1  0
 14 15  2  0
 14 16  1  0
 16 17  1  0
 16 18  1  0
 18 19  2  0
 18 20  1  0
 20  6  1  0
 20 11  2  0
  1 21  1  0
  1 22  1  0
  1 23  1  0
  2 24  1  0
  2 25  1  0
  7 26  1  0
  9 27  1  0
  9 28  1  0
  9 29  1  0
 13 30  1  0
 13 31  1  0
 13 32  1  0
 17 33  1  0
 17 34  1  0
 17 35  1  0
M  END
>  <Unnamed: 0>  (73) 
476

>  <ID>  (73) 
TRAIN_0476

>  <Canonical_Smiles>  (73) 
CCOC(=O)c1cc(C)nc2N(C)C(=O)N(C)C(=O)c12

>  <Inhibition>  (73) 
18.2

>  <TDC_conf_true_inhibitor>  (73) 
0

>  <TDC_conf_non_inhibitor>  (73) 
1

>  <split>  (73) 
1

$$$$
73
     RDKit          3D

 46 47  0  0  0  0  0  0  0  0999 V2000
   -3.4303    4.1963    1.8891 C   0  0  0  0  0  0  0  0  0  0  0  0
   -3.4402    2.7794    1.3447 C   0  0  0  0  0  0  0  0  0  0  0  0
   -2.0281    2.2490    1.1157 C   0  0  0  0  0  0  0  0  0  0  0  0
   -2.1422    0.9192    0.6023 O   0  0  0  0  0  0  0  0  0  0  0  0
   -0.9309    0.3062    0.3348 C   0  0  0  0  0  0  0  0  0  0  0  0
    0.1973    0.9824    0.6161 N   0  0  0  0  0  0  0  0  0  0  0  0
    1.3300    0.3306    0.3211 C   0  0  0  0  0  0  0  0  0  0  0  0
    1.4612   -0.8947   -0.2083 N   0  0  0  0  0  0  0  0  0  0  0  0
    0.2929   -1.5168   -0.4637 C   0  0  0  0  0  0  0  0  0  0  0  0
    0.3397   -2.7938   -0.9957 O   0  0  0  0  0  0  0  0  0  0  0  0
    1.6546   -3.2882   -1.2219 C   0  0  0  0  0  0  0  0  0  0  0  0
   -0.9683   -0.9741   -0.2156 C   0  0  0  0  0  0  0  0  0  0  0  0
   -2.2234   -1.6871   -0.5075 C   0  0  0  0  0  0  0  0  0  0  0  0
   -3.1193   -2.0257    0.5208 C   0  0  0  0  0  0  0  0  0  0  0  0
   -4.3109   -2.7011    0.2445 C   0  0  0  0  0  0  0  0  0  0  0  0
   -4.6268   -3.0503   -1.0657 C   0  0  0  0  0  0  0  0  0  0  0  0
   -3.7534   -2.7239   -2.1000 C   0  0  0  0  0  0  0  0  0  0  0  0
   -2.5623   -2.0477   -1.8229 C   0  0  0  0  0  0  0  0  0  0  0  0
    2.8438    1.2055    0.6918 S   0  0  0  0  0  6  0  0  0  0  0  0
    2.8575    1.4858    2.1191 O   0  0  0  0  0  0  0  0  0  0  0  0
    2.9820    2.2711   -0.2876 O   0  0  0  0  0  0  0  0  0  0  0  0
    4.1247    0.0027    0.3791 C   0  0  0  0  0  0  0  0  0  0  0  0
    5.5155    0.4745    0.7943 C   0  0  0  0  0  0  0  0  0  0  0  0
    6.1054    1.5282   -0.1296 C   0  0  0  0  0  0  0  0  0  0  0  0
   -2.9013    4.2450    2.8460 H   0  0  0  0  0  0  0  0  0  0  0  0
   -4.4540    4.5486    2.0486 H   0  0  0  0  0  0  0  0  0  0  0  0
   -2.9401    4.8813    1.1903 H   0  0  0  0  0  0  0  0  0  0  0  0
   -4.0027    2.7458    0.4039 H   0  0  0  0  0  0  0  0  0  0  0  0
   -3.9730    2.1176    2.0381 H   0  0  0  0  0  0  0  0  0  0  0  0
   -1.4826    2.2417    2.0676 H   0  0  0  0  0  0  0  0  0  0  0  0
   -1.5093    2.8901    0.3921 H   0  0  0  0  0  0  0  0  0  0  0  0
    2.2138   -3.3697   -0.2837 H   0  0  0  0  0  0  0  0  0  0  0  0
    2.1921   -2.6674   -1.9471 H   0  0  0  0  0  0  0  0  0  0  0  0
    1.5650   -4.2932   -1.6451 H   0  0  0  0  0  0  0  0  0  0  0  0
   -2.8948   -1.7610    1.5523 H   0  0  0  0  0  0  0  0  0  0  0  0
   -4.9918   -2.9522    1.0537 H   0  0  0  0  0  0  0  0  0  0  0  0
   -5.5540   -3.5749   -1.2809 H   0  0  0  0  0  0  0  0  0  0  0  0
   -3.9979   -2.9940   -3.1241 H   0  0  0  0  0  0  0  0  0  0  0  0
   -1.8963   -1.8016   -2.6476 H   0  0  0  0  0  0  0  0  0  0  0  0
    4.0988   -0.2549   -0.6845 H   0  0  0  0  0  0  0  0  0  0  0  0
    3.8708   -0.8862    0.9670 H   0  0  0  0  0  0  0  0  0  0  0  0
    5.5035    0.8573    1.8204 H   0  0  0  0  0  0  0  0  0  0  0  0
    6.1858   -0.3935    0.7878 H   0  0  0  0  0  0  0  0  0  0  0  0
    5.5630    2.4744   -0.0614 H   0  0  0  0  0  0  0  0  0  0  0  0
    6.0907    1.1924   -1.1710 H   0  0  0  0  0  0  0  0  0  0  0  0
    7.1462    1.7269    0.1462 H   0  0  0  0  0  0  0  0  0  0  0  0
  1  2  1  0
  2  3  1  0
  3  4  1  0
  4  5  1  0
  5  6  2  0
  6  7  1  0
  7  8  2  0
  8  9  1  0
  9 10  1  0
 10 11  1  0
  9 12  2  0
 12 13  1  0
 13 14  2  0
 14 15  1  0
 15 16  2  0
 16 17  1  0
 17 18  2  0
  7 19  1  0
 19 20  2  0
 19 21  2  0
 19 22  1  0
 22 23  1  0
 23 24  1  0
 12  5  1  0
 18 13  1  0
  1 25  1  0
  1 26  1  0
  1 27  1  0
  2 28  1  0
  2 29  1  0
  3 30  1  0
  3 31  1  0
 11 32  1  0
 11 33  1  0
 11 34  1  0
 14 35  1  0
 15 36  1  0
 16 37  1  0
 17 38  1  0
 18 39  1  0
 22 40  1  0
 22 41  1  0
 23 42  1  0
 23 43  1  0
 24 44  1  0
 24 45  1  0
 24 46  1  0
M  END
>  <Unnamed: 0>  (74) 
478

>  <ID>  (74) 
TRAIN_0478

>  <Canonical_Smiles>  (74) 
CCCOc1nc(nc(OC)c1c2ccccc2)S(=O)(=O)CCC

>  <Inhibition>  (74) 
49.2

>  <TDC_conf_true_inhibitor>  (74) 
0

>  <TDC_conf_non_inhibitor>  (74) 
1

>  <split>  (74) 
1

$$$$
74
     RDKit          3D

 45 48  0  0  0  0  0  0  0  0999 V2000
   -4.2071    3.1686   -0.5822 C   0  0  0  0  0  0  0  0  0  0  0  0
   -3.0430    2.2057   -0.7730 C   0  0  0  0  0  0  0  0  0  0  0  0
   -2.5043    1.6295    0.5554 C   0  0  0  0  0  0  0  0  0  0  0  0
   -3.4563    0.6735    1.2592 C   0  0  0  0  0  0  0  0  0  0  0  0
   -3.5450   -0.6863    0.6031 C   0  0  0  0  0  0  0  0  0  0  0  0
   -4.5288   -1.3867    0.8257 O   0  0  0  0  0  0  0  0  0  0  0  0
   -2.4310   -1.1451   -0.2809 C   0  0  0  0  0  0  0  0  0  0  0  0
   -2.4569   -2.3603   -0.9876 C   0  0  0  0  0  0  0  0  0  0  0  0
   -3.7248   -3.5313   -0.8844 Cl  0  0  0  0  0  0  0  0  0  0  0  0
   -1.4085   -2.6902   -1.8600 C   0  0  0  0  0  0  0  0  0  0  0  0
   -0.3417   -1.8185   -2.0517 C   0  0  0  0  0  0  0  0  0  0  0  0
   -0.3072   -0.6155   -1.3567 C   0  0  0  0  0  0  0  0  0  0  0  0
   -1.3321   -0.2832   -0.4625 C   0  0  0  0  0  0  0  0  0  0  0  0
   -1.1940    0.9432    0.2997 N   0  0  0  0  0  0  0  0  0  0  0  0
   -0.2257    0.7783    1.7381 S   0  0  0  0  0  6  0  0  0  0  0  0
   -0.1976    2.0629    2.4065 O   0  0  0  0  0  0  0  0  0  0  0  0
   -0.6702   -0.4113    2.4348 O   0  0  0  0  0  0  0  0  0  0  0  0
    1.4123    0.4858    1.1221 C   0  0  0  0  0  0  0  0  0  0  0  0
    2.1288    1.5495    0.5708 C   0  0  0  0  0  0  0  0  0  0  0  0
    3.4159    1.3267    0.0809 C   0  0  0  0  0  0  0  0  0  0  0  0
    3.9970    0.0489    0.1452 C   0  0  0  0  0  0  0  0  0  0  0  0
    5.2886   -0.1897   -0.3497 C   0  0  0  0  0  0  0  0  0  0  0  0
    5.8565   -1.4628   -0.2769 C   0  0  0  0  0  0  0  0  0  0  0  0
    5.1422   -2.5127    0.2926 C   0  0  0  0  0  0  0  0  0  0  0  0
    3.8572   -2.2936    0.7909 C   0  0  0  0  0  0  0  0  0  0  0  0
    3.2705   -1.0203    0.7240 C   0  0  0  0  0  0  0  0  0  0  0  0
    1.9792   -0.7887    1.2192 C   0  0  0  0  0  0  0  0  0  0  0  0
   -5.0917    2.6592   -0.1903 H   0  0  0  0  0  0  0  0  0  0  0  0
   -4.4827    3.6169   -1.5423 H   0  0  0  0  0  0  0  0  0  0  0  0
   -3.9400    3.9787    0.1036 H   0  0  0  0  0  0  0  0  0  0  0  0
   -3.3554    1.4075   -1.4561 H   0  0  0  0  0  0  0  0  0  0  0  0
   -2.2335    2.7464   -1.2805 H   0  0  0  0  0  0  0  0  0  0  0  0
   -2.3276    2.4923    1.2093 H   0  0  0  0  0  0  0  0  0  0  0  0
   -3.1408    0.5088    2.2957 H   0  0  0  0  0  0  0  0  0  0  0  0
   -4.4638    1.0999    1.3012 H   0  0  0  0  0  0  0  0  0  0  0  0
   -1.4276   -3.6317   -2.4069 H   0  0  0  0  0  0  0  0  0  0  0  0
    0.4603   -2.0768   -2.7397 H   0  0  0  0  0  0  0  0  0  0  0  0
    0.5226    0.0657   -1.5291 H   0  0  0  0  0  0  0  0  0  0  0  0
    1.6944    2.5456    0.5202 H   0  0  0  0  0  0  0  0  0  0  0  0
    3.9678    2.1603   -0.3493 H   0  0  0  0  0  0  0  0  0  0  0  0
    5.8664    0.6174   -0.7950 H   0  0  0  0  0  0  0  0  0  0  0  0
    6.8588   -1.6329   -0.6620 H   0  0  0  0  0  0  0  0  0  0  0  0
    5.5860   -3.5033    0.3528 H   0  0  0  0  0  0  0  0  0  0  0  0
    3.3176   -3.1276    1.2354 H   0  0  0  0  0  0  0  0  0  0  0  0
    1.4152   -1.6028    1.6711 H   0  0  0  0  0  0  0  0  0  0  0  0
  1  2  1  0
  2  3  1  0
  3  4  1  0
  4  5  1  0
  5  6  2  0
  5  7  1  0
  7  8  2  0
  8  9  1  0
  8 10  1  0
 10 11  2  0
 11 12  1  0
 12 13  2  0
 13 14  1  0
 14 15  1  0
 15 16  2  0
 15 17  2  0
 15 18  1  0
 18 19  2  0
 19 20  1  0
 20 21  2  0
 21 22  1  0
 22 23  2  0
 23 24  1  0
 24 25  2  0
 25 26  1  0
 26 27  2  0
 14  3  1  0
 13  7  1  0
 27 18  1  0
 26 21  1  0
  1 28  1  0
  1 29  1  0
  1 30  1  0
  2 31  1  0
  2 32  1  0
  3 33  1  0
  4 34  1  0
  4 35  1  0
 10 36  1  0
 11 37  1  0
 12 38  1  0
 19 39  1  0
 20 40  1  0
 22 41  1  0
 23 42  1  0
 24 43  1  0
 25 44  1  0
 27 45  1  0
M  END
>  <Unnamed: 0>  (75) 
491

>  <ID>  (75) 
TRAIN_0491

>  <Canonical_Smiles>  (75) 
CCC1CC(=O)c2c(Cl)cccc2N1S(=O)(=O)c3ccc4ccccc4c3

>  <Inhibition>  (75) 
57.7

>  <TDC_conf_true_inhibitor>  (75) 
1

>  <TDC_conf_non_inhibitor>  (75) 
0

>  <split>  (75) 
1

$$$$
75
     RDKit          3D

 37 39  0  0  0  0  0  0  0  0999 V2000
    5.8552   -0.0884   -0.5204 C   0  0  0  0  0  0  0  0  0  0  0  0
    4.9598   -0.8247    0.3032 O   0  0  0  0  0  0  0  0  0  0  0  0
    3.6300   -0.5270    0.1921 C   0  0  0  0  0  0  0  0  0  0  0  0
    3.0726    0.4465   -0.6367 C   0  0  0  0  0  0  0  0  0  0  0  0
    1.6872    0.6485   -0.6518 C   0  0  0  0  0  0  0  0  0  0  0  0
    0.8446   -0.1286    0.1515 C   0  0  0  0  0  0  0  0  0  0  0  0
    1.4083   -1.0910    0.9944 C   0  0  0  0  0  0  0  0  0  0  0  0
    2.7912   -1.2898    1.0077 C   0  0  0  0  0  0  0  0  0  0  0  0
   -0.6091    0.1073    0.1552 C   0  0  0  0  0  0  0  0  0  0  0  0
   -1.0792    1.0110    1.0352 C   0  0  0  0  0  0  0  0  0  0  0  0
   -2.4286    1.3035    1.1176 N   0  0  0  0  0  0  0  0  0  0  0  0
   -3.0543    2.1941    1.9579 C   0  0  0  0  0  0  0  0  0  0  0  0
   -4.4072    2.1669    1.6987 C   0  0  0  0  0  0  0  0  0  0  0  0
   -4.6134    1.2271    0.6636 C   0  0  0  0  0  0  0  0  0  0  0  0
   -3.3785    0.7080    0.3223 C   0  0  0  0  0  0  0  0  0  0  0  0
   -3.0296   -0.2840   -0.6740 C   0  0  0  0  0  0  0  0  0  0  0  0
   -3.8861   -0.8116   -1.3856 O   0  0  0  0  0  0  0  0  0  0  0  0
   -1.5180   -0.6656   -0.8170 C   0  0  0  0  0  0  0  0  0  0  0  0
   -1.4281   -2.1819   -0.5595 C   0  0  0  0  0  0  0  0  0  0  0  0
   -1.1326   -0.3678   -2.2787 C   0  0  0  0  0  0  0  0  0  0  0  0
    6.8680   -0.4514   -0.3209 H   0  0  0  0  0  0  0  0  0  0  0  0
    5.6443   -0.2562   -1.5817 H   0  0  0  0  0  0  0  0  0  0  0  0
    5.8295    0.9784   -0.2751 H   0  0  0  0  0  0  0  0  0  0  0  0
    3.6848    1.0684   -1.2810 H   0  0  0  0  0  0  0  0  0  0  0  0
    1.2730    1.4189   -1.2985 H   0  0  0  0  0  0  0  0  0  0  0  0
    0.7804   -1.6940    1.6459 H   0  0  0  0  0  0  0  0  0  0  0  0
    3.2196   -2.0456    1.6619 H   0  0  0  0  0  0  0  0  0  0  0  0
   -0.4328    1.5518    1.7200 H   0  0  0  0  0  0  0  0  0  0  0  0
   -2.4852    2.7742    2.6722 H   0  0  0  0  0  0  0  0  0  0  0  0
   -5.1617    2.7594    2.2007 H   0  0  0  0  0  0  0  0  0  0  0  0
   -5.5565    0.9498    0.2078 H   0  0  0  0  0  0  0  0  0  0  0  0
   -1.6837   -2.4216    0.4796 H   0  0  0  0  0  0  0  0  0  0  0  0
   -0.4256   -2.5731   -0.7634 H   0  0  0  0  0  0  0  0  0  0  0  0
   -2.1235   -2.7396   -1.1979 H   0  0  0  0  0  0  0  0  0  0  0  0
   -1.1746    0.7080   -2.4868 H   0  0  0  0  0  0  0  0  0  0  0  0
   -1.8162   -0.8579   -2.9822 H   0  0  0  0  0  0  0  0  0  0  0  0
   -0.1239   -0.7223   -2.5166 H   0  0  0  0  0  0  0  0  0  0  0  0
  1  2  1  0
  2  3  1  0
  3  4  2  0
  4  5  1  0
  5  6  2  0
  6  7  1  0
  7  8  2  0
  6  9  1  0
  9 10  2  0
 10 11  1  0
 11 12  1  0
 12 13  2  0
 13 14  1  0
 14 15  2  0
 15 16  1  0
 16 17  2  0
 16 18  1  0
 18 19  1  0
 18 20  1  0
  8  3  1  0
 18  9  1  0
 15 11  1  0
  1 21  1  0
  1 22  1  0
  1 23  1  0
  4 24  1  0
  5 25  1  0
  7 26  1  0
  8 27  1  0
 10 28  1  0
 12 29  1  0
 13 30  1  0
 14 31  1  0
 19 32  1  0
 19 33  1  0
 19 34  1  0
 20 35  1  0
 20 36  1  0
 20 37  1  0
M  END
>  <Unnamed: 0>  (76) 
493

>  <ID>  (76) 
TRAIN_0493

>  <Canonical_Smiles>  (76) 
COc1ccc(cc1)C2=Cn3cccc3C(=O)C2(C)C

>  <Inhibition>  (76) 
32.8

>  <TDC_conf_true_inhibitor>  (76) 
1

>  <TDC_conf_non_inhibitor>  (76) 
0

>  <split>  (76) 
1

$$$$
76
     RDKit          3D

 55 58  0  0  0  0  0  0  0  0999 V2000
    3.7769    2.4006   -0.1726 C   0  0  0  0  0  0  0  0  0  0  0  0
    4.4456    1.1247   -0.1174 N   0  0  0  0  0  0  0  0  0  0  0  0
    3.8813   -0.0881   -0.4466 C   0  0  0  0  0  0  0  0  0  0  0  0
    2.5909   -0.1882   -0.8276 N   0  0  0  0  0  0  0  0  0  0  0  0
    2.0009   -1.5209   -0.9037 C   0  0  0  0  0  0  0  0  0  0  0  0
    0.5026   -1.3946   -1.2663 C   0  0  0  0  0  0  0  0  0  0  0  0
   -0.2310   -0.4119   -0.4294 N   0  0  0  0  0  0  0  0  0  0  0  0
   -1.4755   -0.0012   -1.1009 C   0  0  0  0  0  0  0  0  0  0  0  0
   -2.4622    0.6199   -0.1184 C   0  0  0  0  0  0  0  0  0  0  0  0
   -2.9409   -0.4284    0.9068 C   0  0  0  0  0  0  0  0  0  0  0  0
   -3.2486    0.2401    2.1419 O   0  0  0  0  0  0  0  0  0  0  0  0
   -4.2074   -1.2092    0.4523 C   0  0  0  0  0  0  0  0  0  0  0  0
   -5.3971   -0.3779    0.0194 C   0  0  0  0  0  0  0  0  0  0  0  0
   -6.1338    0.3602    0.9553 C   0  0  0  0  0  0  0  0  0  0  0  0
   -7.2307    1.1237    0.5537 C   0  0  0  0  0  0  0  0  0  0  0  0
   -7.6069    1.1542   -0.7873 C   0  0  0  0  0  0  0  0  0  0  0  0
   -6.8868    0.4200   -1.7275 C   0  0  0  0  0  0  0  0  0  0  0  0
   -5.7889   -0.3441   -1.3273 C   0  0  0  0  0  0  0  0  0  0  0  0
   -1.8232   -1.4569    1.2058 C   0  0  0  0  0  0  0  0  0  0  0  0
   -0.4337   -0.8716    0.9538 C   0  0  0  0  0  0  0  0  0  0  0  0
    4.7585   -1.0586   -0.3385 N   0  0  0  0  0  0  0  0  0  0  0  0
    5.9173   -0.4670    0.0941 C   0  0  0  0  0  0  0  0  0  0  0  0
    7.1604   -1.0515    0.3799 C   0  0  0  0  0  0  0  0  0  0  0  0
    8.2079   -0.2325    0.8166 C   0  0  0  0  0  0  0  0  0  0  0  0
    8.0216    1.1425    0.9657 C   0  0  0  0  0  0  0  0  0  0  0  0
    6.7891    1.7443    0.6843 C   0  0  0  0  0  0  0  0  0  0  0  0
    5.7538    0.9070    0.2485 C   0  0  0  0  0  0  0  0  0  0  0  0
    3.2990    2.5069   -1.1506 H   0  0  0  0  0  0  0  0  0  0  0  0
    4.4950    3.2118   -0.0380 H   0  0  0  0  0  0  0  0  0  0  0  0
    3.0299    2.4321    0.6256 H   0  0  0  0  0  0  0  0  0  0  0  0
    1.9067    0.4985   -0.5136 H   0  0  0  0  0  0  0  0  0  0  0  0
    2.5053   -2.1173   -1.6736 H   0  0  0  0  0  0  0  0  0  0  0  0
    2.1150   -2.0425    0.0535 H   0  0  0  0  0  0  0  0  0  0  0  0
    0.4615   -1.0592   -2.3118 H   0  0  0  0  0  0  0  0  0  0  0  0
    0.0226   -2.3806   -1.2284 H   0  0  0  0  0  0  0  0  0  0  0  0
   -1.2286    0.7329   -1.8767 H   0  0  0  0  0  0  0  0  0  0  0  0
   -1.9572   -0.8511   -1.6023 H   0  0  0  0  0  0  0  0  0  0  0  0
   -3.2984    1.0659   -0.6655 H   0  0  0  0  0  0  0  0  0  0  0  0
   -1.9829    1.4675    0.3910 H   0  0  0  0  0  0  0  0  0  0  0  0
   -2.4884    0.7958    2.3853 H   0  0  0  0  0  0  0  0  0  0  0  0
   -3.9418   -1.8835   -0.3724 H   0  0  0  0  0  0  0  0  0  0  0  0
   -4.5477   -1.8566    1.2726 H   0  0  0  0  0  0  0  0  0  0  0  0
   -5.8518    0.3452    2.0064 H   0  0  0  0  0  0  0  0  0  0  0  0
   -7.7908    1.6942    1.2897 H   0  0  0  0  0  0  0  0  0  0  0  0
   -8.4609    1.7491   -1.0985 H   0  0  0  0  0  0  0  0  0  0  0  0
   -7.1804    0.4425   -2.7738 H   0  0  0  0  0  0  0  0  0  0  0  0
   -5.2402   -0.9108   -2.0759 H   0  0  0  0  0  0  0  0  0  0  0  0
   -1.8865   -1.7946    2.2477 H   0  0  0  0  0  0  0  0  0  0  0  0
   -1.9322   -2.3496    0.5759 H   0  0  0  0  0  0  0  0  0  0  0  0
    0.3248   -1.5993    1.2612 H   0  0  0  0  0  0  0  0  0  0  0  0
   -0.2881   -0.0088    1.6166 H   0  0  0  0  0  0  0  0  0  0  0  0
    7.2947   -2.1207    0.2614 H   0  0  0  0  0  0  0  0  0  0  0  0
    9.1752   -0.6756    1.0408 H   0  0  0  0  0  0  0  0  0  0  0  0
    8.8505    1.7594    1.3067 H   0  0  0  0  0  0  0  0  0  0  0  0
    6.6552    2.8135    0.8031 H   0  0  0  0  0  0  0  0  0  0  0  0
  1  2  1  0
  2  3  1  0
  3  4  1  0
  4  5  1  0
  5  6  1  0
  6  7  1  0
  7  8  1  0
  8  9  1  0
  9 10  1  0
 10 11  1  0
 10 12  1  0
 12 13  1  0
 13 14  2  0
 14 15  1  0
 15 16  2  0
 16 17  1  0
 17 18  2  0
 10 19  1  0
 19 20  1  0
  3 21  2  0
 21 22  1  0
 22 23  2  0
 23 24  1  0
 24 25  2  0
 25 26  1  0
 26 27  2  0
 27  2  1  0
 20  7  1  0
 18 13  1  0
 27 22  1  0
  1 28  1  0
  1 29  1  0
  1 30  1  0
  4 31  1  0
  5 32  1  0
  5 33  1  0
  6 34  1  0
  6 35  1  0
  8 36  1  0
  8 37  1  0
  9 38  1  0
  9 39  1  0
 11 40  1  0
 12 41  1  0
 12 42  1  0
 14 43  1  0
 15 44  1  0
 16 45  1  0
 17 46  1  0
 18 47  1  0
 19 48  1  0
 19 49  1  0
 20 50  1  0
 20 51  1  0
 23 52  1  0
 24 53  1  0
 25 54  1  0
 26 55  1  0
M  END
>  <Unnamed: 0>  (77) 
500

>  <ID>  (77) 
TRAIN_0500

>  <Canonical_Smiles>  (77) 
Cn1c(NCCN2CCC(O)(Cc3ccccc3)CC2)nc4ccccc14

>  <Inhibition>  (77) 
14.3

>  <TDC_conf_true_inhibitor>  (77) 
0

>  <TDC_conf_non_inhibitor>  (77) 
1

>  <split>  (77) 
1

$$$$
77
     RDKit          3D

 48 49  0  0  0  0  0  0  0  0999 V2000
    3.2798    2.4281    1.3232 C   0  0  0  0  0  0  0  0  0  0  0  0
    3.3397    1.0427    0.9813 O   0  0  0  0  0  0  0  0  0  0  0  0
    3.8548    0.8072   -0.2484 C   0  0  0  0  0  0  0  0  0  0  0  0
    4.2517    1.6370   -1.0485 O   0  0  0  0  0  0  0  0  0  0  0  0
    3.9566   -0.6501   -0.4591 C   0  0  0  0  0  0  0  0  0  0  0  0
    5.2634   -1.1263   -0.6659 C   0  0  0  0  0  0  0  0  0  0  0  0
    5.5012   -2.4860   -0.8470 C   0  0  0  0  0  0  0  0  0  0  0  0
    4.4354   -3.3771   -0.8255 C   0  0  0  0  0  0  0  0  0  0  0  0
    3.1324   -2.9071   -0.6400 C   0  0  0  0  0  0  0  0  0  0  0  0
    2.8570   -1.5330   -0.4702 C   0  0  0  0  0  0  0  0  0  0  0  0
    1.3946   -1.1345   -0.3210 C   0  0  0  0  0  0  0  0  0  0  0  0
    0.9686   -0.9862    1.1536 C   0  0  0  0  0  0  0  0  0  0  0  0
   -0.0074    0.1662    1.3824 C   0  0  0  0  0  0  0  0  0  0  0  0
   -1.0222    0.2293    0.3415 N   0  0  0  0  0  0  0  0  0  0  0  0
   -0.5792    0.2299   -1.0493 C   0  0  0  0  0  0  0  0  0  0  0  0
    0.9302    0.0424   -1.1928 C   0  0  0  0  0  0  0  0  0  0  0  0
   -2.3459    0.4543    0.6822 C   0  0  0  0  0  0  0  0  0  0  0  0
   -2.7449    0.5556    1.8347 O   0  0  0  0  0  0  0  0  0  0  0  0
   -3.1394    0.5440   -0.4171 O   0  0  0  0  0  0  0  0  0  0  0  0
   -4.5656    0.7765   -0.2947 C   0  0  0  0  0  0  0  0  0  0  0  0
   -5.0777    0.8102   -1.7431 C   0  0  0  0  0  0  0  0  0  0  0  0
   -5.2582   -0.3757    0.4411 C   0  0  0  0  0  0  0  0  0  0  0  0
   -4.8564    2.1327    0.3573 C   0  0  0  0  0  0  0  0  0  0  0  0
    2.8526    2.5107    2.3264 H   0  0  0  0  0  0  0  0  0  0  0  0
    4.2838    2.8637    1.3366 H   0  0  0  0  0  0  0  0  0  0  0  0
    2.6315    2.9673    0.6254 H   0  0  0  0  0  0  0  0  0  0  0  0
    6.1013   -0.4312   -0.6792 H   0  0  0  0  0  0  0  0  0  0  0  0
    6.5145   -2.8478   -1.0005 H   0  0  0  0  0  0  0  0  0  0  0  0
    4.6136   -4.4413   -0.9605 H   0  0  0  0  0  0  0  0  0  0  0  0
    2.3212   -3.6343   -0.6381 H   0  0  0  0  0  0  0  0  0  0  0  0
    0.8131   -1.9873   -0.7067 H   0  0  0  0  0  0  0  0  0  0  0  0
    0.4858   -1.9236    1.4627 H   0  0  0  0  0  0  0  0  0  0  0  0
    1.8267   -0.8679    1.8248 H   0  0  0  0  0  0  0  0  0  0  0  0
   -0.4652    0.0654    2.3722 H   0  0  0  0  0  0  0  0  0  0  0  0
    0.5200    1.1268    1.3755 H   0  0  0  0  0  0  0  0  0  0  0  0
   -1.1117   -0.5770   -1.5672 H   0  0  0  0  0  0  0  0  0  0  0  0
   -0.8850    1.1748   -1.5136 H   0  0  0  0  0  0  0  0  0  0  0  0
    1.4184    0.9765   -0.9024 H   0  0  0  0  0  0  0  0  0  0  0  0
    1.1831   -0.1301   -2.2457 H   0  0  0  0  0  0  0  0  0  0  0  0
   -4.5769    1.6001   -2.3151 H   0  0  0  0  0  0  0  0  0  0  0  0
   -6.1583    0.9818   -1.7892 H   0  0  0  0  0  0  0  0  0  0  0  0
   -4.8545   -0.1320   -2.2573 H   0  0  0  0  0  0  0  0  0  0  0  0
   -4.9869   -0.4073    1.5005 H   0  0  0  0  0  0  0  0  0  0  0  0
   -4.9662   -1.3414    0.0133 H   0  0  0  0  0  0  0  0  0  0  0  0
   -6.3485   -0.2855    0.3857 H   0  0  0  0  0  0  0  0  0  0  0  0
   -5.9209    2.3837    0.2966 H   0  0  0  0  0  0  0  0  0  0  0  0
   -4.2821    2.9290   -0.1294 H   0  0  0  0  0  0  0  0  0  0  0  0
   -4.5777    2.1469    1.4152 H   0  0  0  0  0  0  0  0  0  0  0  0
  1  2  1  0
  2  3  1  0
  3  4  2  0
  3  5  1  0
  5  6  2  0
  6  7  1  0
  7  8  2  0
  8  9  1  0
  9 10  2  0
 10 11  1  0
 11 12  1  0
 12 13  1  0
 13 14  1  0
 14 15  1  0
 15 16  1  0
 14 17  1  0
 17 18  2  0
 17 19  1  0
 19 20  1  0
 20 21  1  0
 20 22  1  0
 20 23  1  0
 10  5  1  0
 16 11  1  0
  1 24  1  0
  1 25  1  0
  1 26  1  0
  6 27  1  0
  7 28  1  0
  8 29  1  0
  9 30  1  0
 11 31  1  0
 12 32  1  0
 12 33  1  0
 13 34  1  0
 13 35  1  0
 15 36  1  0
 15 37  1  0
 16 38  1  0
 16 39  1  0
 21 40  1  0
 21 41  1  0
 21 42  1  0
 22 43  1  0
 22 44  1  0
 22 45  1  0
 23 46  1  0
 23 47  1  0
 23 48  1  0
M  END
>  <Unnamed: 0>  (78) 
503

>  <ID>  (78) 
TRAIN_0503

>  <Canonical_Smiles>  (78) 
COC(=O)c1ccccc1C2CCN(CC2)C(=O)OC(C)(C)C

>  <Inhibition>  (78) 
14.9

>  <TDC_conf_true_inhibitor>  (78) 
0

>  <TDC_conf_non_inhibitor>  (78) 
1

>  <split>  (78) 
1

$$$$
78
     RDKit          3D

 46 48  0  0  0  0  0  0  0  0999 V2000
    6.9230    2.2899   -0.6822 C   0  0  0  0  0  0  0  0  0  0  0  0
    6.3792    0.9750   -0.6665 O   0  0  0  0  0  0  0  0  0  0  0  0
    5.1557    0.8174   -0.0748 C   0  0  0  0  0  0  0  0  0  0  0  0
    4.3836    1.8291    0.4895 C   0  0  0  0  0  0  0  0  0  0  0  0
    3.1429    1.5247    1.0541 C   0  0  0  0  0  0  0  0  0  0  0  0
    2.6625    0.2044    1.0729 C   0  0  0  0  0  0  0  0  0  0  0  0
    1.3021   -0.0747    1.6737 C   0  0  0  0  0  0  0  0  0  0  0  0
    0.2821    0.1284    0.6532 N   0  0  0  0  0  0  0  0  0  0  0  0
   -1.0318    0.0552    0.9821 C   0  0  0  0  0  0  0  0  0  0  0  0
   -1.5003    0.1070    2.2396 N   0  0  0  0  0  0  0  0  0  0  0  0
   -3.0382   -0.0528    2.0409 S   0  0  0  0  0  6  0  0  0  0  0  0
   -3.4535   -1.4682    2.7055 O   0  0  0  0  0  0  0  0  0  0  0  0
   -3.8937    0.9877    2.9136 O   0  0  0  0  0  0  0  0  0  0  0  0
   -3.3628   -0.0854    0.4628 C   0  0  0  0  0  0  0  0  0  0  0  0
   -2.0688   -0.0585   -0.0973 C   0  0  0  0  0  0  0  0  0  0  0  0
   -1.7579   -0.1100   -1.5584 C   0  0  0  0  0  0  0  0  0  0  0  0
   -4.6865   -0.0869   -0.1404 C   0  0  0  0  0  0  0  0  0  0  0  0
   -5.5997   -1.1219    0.1110 C   0  0  0  0  0  0  0  0  0  0  0  0
   -6.8627   -1.1178   -0.4896 C   0  0  0  0  0  0  0  0  0  0  0  0
   -7.2190   -0.0804   -1.3474 C   0  0  0  0  0  0  0  0  0  0  0  0
   -8.7703   -0.0776   -2.0897 Cl  0  0  0  0  0  0  0  0  0  0  0  0
   -6.3247    0.9538   -1.6097 C   0  0  0  0  0  0  0  0  0  0  0  0
   -5.0619    0.9500   -1.0089 C   0  0  0  0  0  0  0  0  0  0  0  0
    3.4380   -0.8148    0.4948 C   0  0  0  0  0  0  0  0  0  0  0  0
    2.8886   -2.0701    0.5100 O   0  0  0  0  0  0  0  0  0  0  0  0
    3.7249   -3.1513    0.1131 C   0  0  0  0  0  0  0  0  0  0  0  0
    4.6774   -0.4979   -0.0718 C   0  0  0  0  0  0  0  0  0  0  0  0
    7.0798    2.6653    0.3342 H   0  0  0  0  0  0  0  0  0  0  0  0
    6.2911    2.9700   -1.2631 H   0  0  0  0  0  0  0  0  0  0  0  0
    7.8991    2.2409   -1.1739 H   0  0  0  0  0  0  0  0  0  0  0  0
    4.7104    2.8634    0.5015 H   0  0  0  0  0  0  0  0  0  0  0  0
    2.5402    2.3266    1.4787 H   0  0  0  0  0  0  0  0  0  0  0  0
    1.1464    0.6017    2.5252 H   0  0  0  0  0  0  0  0  0  0  0  0
    1.2532   -1.0950    2.0719 H   0  0  0  0  0  0  0  0  0  0  0  0
    0.5903   -0.1969   -0.2579 H   0  0  0  0  0  0  0  0  0  0  0  0
   -1.4181    0.8709   -1.9058 H   0  0  0  0  0  0  0  0  0  0  0  0
   -2.6298   -0.4004   -2.1516 H   0  0  0  0  0  0  0  0  0  0  0  0
   -0.9718   -0.8441   -1.7605 H   0  0  0  0  0  0  0  0  0  0  0  0
   -5.3420   -1.9458    0.7759 H   0  0  0  0  0  0  0  0  0  0  0  0
   -7.5597   -1.9253   -0.2813 H   0  0  0  0  0  0  0  0  0  0  0  0
   -6.6034    1.7668   -2.2753 H   0  0  0  0  0  0  0  0  0  0  0  0
   -4.3795    1.7714   -1.2192 H   0  0  0  0  0  0  0  0  0  0  0  0
    3.9524   -3.0962   -0.9562 H   0  0  0  0  0  0  0  0  0  0  0  0
    4.6405   -3.1906    0.7133 H   0  0  0  0  0  0  0  0  0  0  0  0
    3.1739   -4.0807    0.2875 H   0  0  0  0  0  0  0  0  0  0  0  0
    5.2989   -1.2565   -0.5365 H   0  0  0  0  0  0  0  0  0  0  0  0
  1  2  1  0
  2  3  1  0
  3  4  2  0
  4  5  1  0
  5  6  2  0
  6  7  1  0
  7  8  1  0
  8  9  1  0
  9 10  2  0
 10 11  1  0
 11 12  2  0
 11 13  2  0
 11 14  1  0
 14 15  2  0
 15 16  1  0
 14 17  1  0
 17 18  2  0
 18 19  1  0
 19 20  2  0
 20 21  1  0
 20 22  1  0
 22 23  2  0
  6 24  1  0
 24 25  1  0
 25 26  1  0
 24 27  2  0
 27  3  1  0
 15  9  1  0
 23 17  1  0
  1 28  1  0
  1 29  1  0
  1 30  1  0
  4 31  1  0
  5 32  1  0
  7 33  1  0
  7 34  1  0
  8 35  1  0
 16 36  1  0
 16 37  1  0
 16 38  1  0
 18 39  1  0
 19 40  1  0
 22 41  1  0
 23 42  1  0
 26 43  1  0
 26 44  1  0
 26 45  1  0
 27 46  1  0
M  END
>  <Unnamed: 0>  (79) 
508

>  <ID>  (79) 
TRAIN_0508

>  <Canonical_Smiles>  (79) 
COc1ccc(CNC2=NS(=O)(=O)C(=C2C)c3ccc(Cl)cc3)c(OC)c1

>  <Inhibition>  (79) 
75.9

>  <TDC_conf_true_inhibitor>  (79) 
1

>  <TDC_conf_non_inhibitor>  (79) 
0

>  <split>  (79) 
1

$$$$
79
     RDKit          3D

 35 38  0  0  0  0  0  0  0  0999 V2000
    1.7163   -1.9050    1.2562 O   0  0  0  0  0  0  0  0  0  0  0  0
    1.9849   -0.8924    0.6243 C   0  0  0  0  0  0  0  0  0  0  0  0
    1.0841    0.0845    0.2161 N   0  0  0  0  0  0  0  0  0  0  0  0
   -0.2943    0.1790    0.1549 C   0  0  0  0  0  0  0  0  0  0  0  0
   -0.6520    1.3472   -0.3054 N   0  0  0  0  0  0  0  0  0  0  0  0
   -2.0371    1.6164   -0.4385 C   0  0  0  0  0  0  0  0  0  0  0  0
   -2.4322    2.8660   -0.9200 C   0  0  0  0  0  0  0  0  0  0  0  0
   -3.7889    3.1765   -1.0687 C   0  0  0  0  0  0  0  0  0  0  0  0
   -4.7685    2.2376   -0.7366 C   0  0  0  0  0  0  0  0  0  0  0  0
   -4.3966    0.9842   -0.2540 C   0  0  0  0  0  0  0  0  0  0  0  0
   -3.0402    0.6889   -0.1107 C   0  0  0  0  0  0  0  0  0  0  0  0
   -2.5693   -0.6071    0.3898 C   0  0  0  0  0  0  0  0  0  0  0  0
   -3.3605   -1.5884    0.7348 N   0  0  0  0  0  0  0  0  0  0  0  0
   -2.4131   -2.6625    1.1448 C   0  0  0  0  0  0  0  0  0  0  0  0
   -0.9854   -2.0983    1.0413 C   0  0  0  0  0  0  0  0  0  0  0  0
   -1.2109   -0.7842    0.4964 N   0  0  0  0  0  0  0  0  0  0  0  0
    3.4076   -0.6107    0.3101 C   0  0  0  0  0  0  0  0  0  0  0  0
    3.8168    0.1243   -0.8065 C   0  0  0  0  0  0  0  0  0  0  0  0
    5.1783    0.3337   -1.0241 C   0  0  0  0  0  0  0  0  0  0  0  0
    6.0829   -0.2051   -0.1225 C   0  0  0  0  0  0  0  0  0  0  0  0
    5.7208   -0.9313    0.9566 N   0  0  0  0  0  0  0  0  0  0  0  0
    4.3918   -1.1267    1.1448 C   0  0  0  0  0  0  0  0  0  0  0  0
    1.4750    0.9532   -0.1215 H   0  0  0  0  0  0  0  0  0  0  0  0
   -1.6775    3.6032   -1.1802 H   0  0  0  0  0  0  0  0  0  0  0  0
   -4.0807    4.1543   -1.4444 H   0  0  0  0  0  0  0  0  0  0  0  0
   -5.8211    2.4837   -0.8536 H   0  0  0  0  0  0  0  0  0  0  0  0
   -5.1509    0.2468    0.0076 H   0  0  0  0  0  0  0  0  0  0  0  0
   -2.6354   -2.9804    2.1689 H   0  0  0  0  0  0  0  0  0  0  0  0
   -2.5394   -3.5274    0.4845 H   0  0  0  0  0  0  0  0  0  0  0  0
   -0.3873   -2.7277    0.3758 H   0  0  0  0  0  0  0  0  0  0  0  0
   -0.5416   -2.0501    2.0402 H   0  0  0  0  0  0  0  0  0  0  0  0
    3.1041    0.5142   -1.5273 H   0  0  0  0  0  0  0  0  0  0  0  0
    5.5281    0.8965   -1.8833 H   0  0  0  0  0  0  0  0  0  0  0  0
    7.1534   -0.0688   -0.2515 H   0  0  0  0  0  0  0  0  0  0  0  0
    4.1386   -1.7239    2.0179 H   0  0  0  0  0  0  0  0  0  0  0  0
  1  2  2  0
  2  3  1  0
  3  4  1  0
  4  5  2  0
  5  6  1  0
  6  7  2  0
  7  8  1  0
  8  9  2  0
  9 10  1  0
 10 11  2  0
 11 12  1  0
 12 13  2  0
 13 14  1  0
 14 15  1  0
 15 16  1  0
  2 17  1  0
 17 18  2  0
 18 19  1  0
 19 20  2  0
 20 21  1  0
 21 22  2  0
 16  4  1  0
 11  6  1  0
 16 12  1  0
 22 17  1  0
  3 23  1  0
  7 24  1  0
  8 25  1  0
  9 26  1  0
 10 27  1  0
 14 28  1  0
 14 29  1  0
 15 30  1  0
 15 31  1  0
 18 32  1  0
 19 33  1  0
 20 34  1  0
 22 35  1  0
M  END
>  <Unnamed: 0>  (80) 
509

>  <ID>  (80) 
TRAIN_0509

>  <Canonical_Smiles>  (80) 
O=C(NC1=Nc2ccccc2C3=NCCN13)c4cccnc4

>  <Inhibition>  (80) 
1.7

>  <TDC_conf_true_inhibitor>  (80) 
0

>  <TDC_conf_non_inhibitor>  (80) 
1

>  <split>  (80) 
1

$$$$
80
     RDKit          3D

 53 56  0  0  0  0  0  0  0  0999 V2000
    0.6828    0.0000    0.0000 Cl  0  0  0  0  0  0  0  0  0  0  0  0
   -6.8153   -1.5618    1.8557 F   0  0  0  0  0  0  0  0  0  0  0  0
   -5.8151   -1.8662    0.9653 C   0  0  0  0  0  0  0  0  0  0  0  0
   -5.9320   -2.9398    0.1038 C   0  0  0  0  0  0  0  0  0  0  0  0
   -4.9050   -3.2067   -0.7696 C   0  0  0  0  0  0  0  0  0  0  0  0
   -4.9554   -4.2500   -1.6449 F   0  0  0  0  0  0  0  0  0  0  0  0
   -3.7597   -2.4255   -0.8054 C   0  0  0  0  0  0  0  0  0  0  0  0
   -3.6696   -1.3569    0.0687 C   0  0  0  0  0  0  0  0  0  0  0  0
   -4.6891   -1.0729    0.9525 C   0  0  0  0  0  0  0  0  0  0  0  0
   -2.4751   -0.5298    0.0748 C   0  0  0  0  0  0  0  0  0  0  0  0
   -2.3997    0.7883    0.1014 C   0  0  0  0  0  0  0  0  0  0  0  0
   -1.0156    1.2458    0.1000 C   0  0  0  0  0  0  0  0  0  0  0  0
   -0.5753    2.4230    0.1194 O   0  0  0  0  0  0  0  0  0  0  0  0
   -0.2182    0.0216    0.0706 C   0  0  0  0  0  0  0  0  0  0  0  0
    1.1605   -0.1541    0.0663 C   0  0  0  0  0  0  0  0  0  0  0  0
    1.6603   -1.4298    0.0491 C   0  0  0  0  0  0  0  0  0  0  0  0
    3.0319   -1.6214    0.0444 O   0  0  0  0  0  0  0  0  0  0  0  0
    3.8949   -0.5052    0.0447 C   0  0  0  0  0  0  0  0  0  0  0  0
    5.3313   -1.0285    0.0238 C   0  0  0  0  0  0  0  0  0  0  0  0
    6.3038    0.0911    0.0292 C   0  0  0  0  0  0  0  0  0  0  0  0
    6.7988    0.5979    1.2211 C   0  0  0  0  0  0  0  0  0  0  0  0
    7.6932    1.6373    1.1830 C   0  0  0  0  0  0  0  0  0  0  0  0
    8.1009    2.1777   -0.0082 C   0  0  0  0  0  0  0  0  0  0  0  0
    7.5976    1.6613   -1.1988 C   0  0  0  0  0  0  0  0  0  0  0  0
    6.7271    0.6473   -1.1245 N   0  0  0  0  0  0  0  0  0  0  0  0
    0.7654   -2.4795    0.0364 C   0  0  0  0  0  0  0  0  0  0  0  0
   -0.5974   -2.3331    0.0396 C   0  0  0  0  0  0  0  0  0  0  0  0
   -1.1126   -1.0320    0.0567 C   0  0  0  0  0  0  0  0  0  0  0  0
   -3.5122    1.7406    0.1216 C   0  0  0  0  0  0  0  0  0  0  0  0
   -4.6434    1.5942   -0.6122 C   0  0  0  0  0  0  0  0  0  0  0  0
   -5.6364    2.5475   -0.5038 C   0  0  0  0  0  0  0  0  0  0  0  0
   -5.4816    3.6413    0.3433 C   0  0  0  0  0  0  0  0  0  0  0  0
   -4.3561    3.7440    1.0432 N   0  0  0  0  0  0  0  0  0  0  0  0
   -3.3882    2.8379    0.9537 C   0  0  0  0  0  0  0  0  0  0  0  0
   -0.6828    0.0000    0.0000 H   0  0  0  0  0  0  0  0  0  0  0  0
   -6.8109   -3.5551    0.1170 H   0  0  0  0  0  0  0  0  0  0  0  0
   -2.9669   -2.6733   -1.5310 H   0  0  0  0  0  0  0  0  0  0  0  0
   -4.6199   -0.2257    1.6466 H   0  0  0  0  0  0  0  0  0  0  0  0
    1.8018    0.7181    0.0762 H   0  0  0  0  0  0  0  0  0  0  0  0
    3.6876    0.1072   -0.8539 H   0  0  0  0  0  0  0  0  0  0  0  0
    3.7702    0.1259    0.9525 H   0  0  0  0  0  0  0  0  0  0  0  0
    5.4061   -1.6569   -0.8838 H   0  0  0  0  0  0  0  0  0  0  0  0
    5.5137   -1.6676    0.9163 H   0  0  0  0  0  0  0  0  0  0  0  0
    6.4665    0.1584    2.1568 H   0  0  0  0  0  0  0  0  0  0  0  0
    8.0837    2.0364    2.1070 H   0  0  0  0  0  0  0  0  0  0  0  0
    8.8030    2.9951   -0.0775 H   0  0  0  0  0  0  0  0  0  0  0  0
    7.9117    2.0797   -2.1444 H   0  0  0  0  0  0  0  0  0  0  0  0
    1.1585   -3.4924    0.0226 H   0  0  0  0  0  0  0  0  0  0  0  0
   -1.2905   -3.1567    0.0363 H   0  0  0  0  0  0  0  0  0  0  0  0
   -4.7497    0.7435   -1.2704 H   0  0  0  0  0  0  0  0  0  0  0  0
   -6.5520    2.4657   -1.0719 H   0  0  0  0  0  0  0  0  0  0  0  0
   -6.2323    4.4030    0.4541 H   0  0  0  0  0  0  0  0  0  0  0  0
   -2.4934    2.9910    1.5592 H   0  0  0  0  0  0  0  0  0  0  0  0
  2  3  1  0
  3  4  2  0
  4  5  1  0
  5  6  1  0
  5  7  2  0
  7  8  1  0
  8  9  2  0
  8 10  1  0
 10 11  2  0
 11 12  1  0
 12 13  2  0
 12 14  1  0
 14 15  2  0
 15 16  1  0
 16 17  1  0
 17 18  1  0
 18 19  1  0
 19 20  1  0
 20 21  2  0
 21 22  1  0
 22 23  2  0
 23 24  1  0
 24 25  2  0
 16 26  2  0
 26 27  1  0
 27 28  2  0
 11 29  1  0
 29 30  2  0
 30 31  1  0
 31 32  2  0
 32 33  1  0
 33 34  2  0
  9  3  1  0
 28 10  1  0
 28 14  1  0
 25 20  1  0
 34 29  1  0
  1 35  1  0
  4 36  1  0
  7 37  1  0
  9 38  1  0
 15 39  1  0
 18 40  1  0
 18 41  1  0
 19 42  1  0
 19 43  1  0
 21 44  1  0
 22 45  1  0
 23 46  1  0
 24 47  1  0
 26 48  1  0
 27 49  1  0
 30 50  1  0
 31 51  1  0
 32 52  1  0
 34 53  1  0
M  END
>  <Unnamed: 0>  (81) 
510

>  <ID>  (81) 
TRAIN_0510

>  <Canonical_Smiles>  (81) 
Cl.Fc1cc(F)cc(c1)C2=C(C(=O)c3cc(OCCc4ccccn4)ccc23)c5cccnc5

>  <Inhibition>  (81) 
84.5

>  <TDC_conf_true_inhibitor>  (81) 
1

>  <TDC_conf_non_inhibitor>  (81) 
0

>  <split>  (81) 
1

$$$$
81
     RDKit          3D

 35 37  0  0  0  0  0  0  0  0999 V2000
    4.6125   -0.7267    1.3181 C   0  0  0  0  0  0  0  0  0  0  0  0
    3.7094   -0.0159    0.3294 C   0  0  0  0  0  0  0  0  0  0  0  0
    2.3631   -0.0958    0.8166 O   0  0  0  0  0  0  0  0  0  0  0  0
    1.4383    0.5064    0.0146 C   0  0  0  0  0  0  0  0  0  0  0  0
    1.6911    1.0669   -1.0422 O   0  0  0  0  0  0  0  0  0  0  0  0
    0.0464    0.3286    0.6134 C   0  0  0  0  0  0  0  0  0  0  0  0
   -0.4473   -1.0828    0.2785 C   0  0  0  0  0  0  0  0  0  0  0  0
   -0.4401   -1.4843   -1.2062 C   0  0  0  0  0  0  0  0  0  0  0  0
   -1.2649   -2.7697   -1.2469 C   0  0  0  0  0  0  0  0  0  0  0  0
   -2.1481   -2.6281   -0.0301 C   0  0  0  0  0  0  0  0  0  0  0  0
   -2.9419   -3.4883    0.3279 O   0  0  0  0  0  0  0  0  0  0  0  0
   -1.8933   -1.3344    0.7068 C   0  0  0  0  0  0  0  0  0  0  0  0
   -2.8508   -0.2462    0.2770 C   0  0  0  0  0  0  0  0  0  0  0  0
   -4.0420   -0.4803    0.0897 O   0  0  0  0  0  0  0  0  0  0  0  0
   -2.3090    1.1373    0.1106 C   0  0  0  0  0  0  0  0  0  0  0  0
   -3.2380    2.0852   -0.1762 N   0  0  0  0  0  0  0  0  0  0  0  0
   -2.8168    3.3570   -0.3060 C   0  0  0  0  0  0  0  0  0  0  0  0
   -1.4999    3.7380   -0.1497 C   0  0  0  0  0  0  0  0  0  0  0  0
   -0.5603    2.7541    0.1441 C   0  0  0  0  0  0  0  0  0  0  0  0
   -0.9483    1.4091    0.2544 C   0  0  0  0  0  0  0  0  0  0  0  0
    4.5391   -0.2649    2.3083 H   0  0  0  0  0  0  0  0  0  0  0  0
    4.3110   -1.7733    1.4319 H   0  0  0  0  0  0  0  0  0  0  0  0
    5.6547   -0.6930    0.9888 H   0  0  0  0  0  0  0  0  0  0  0  0
    4.0085    1.0346    0.2425 H   0  0  0  0  0  0  0  0  0  0  0  0
    3.7768   -0.5025   -0.6499 H   0  0  0  0  0  0  0  0  0  0  0  0
    0.1565    0.4056    1.7054 H   0  0  0  0  0  0  0  0  0  0  0  0
    0.2029   -1.8003    0.8038 H   0  0  0  0  0  0  0  0  0  0  0  0
    0.5715   -1.6549   -1.5882 H   0  0  0  0  0  0  0  0  0  0  0  0
   -0.9064   -0.7171   -1.8352 H   0  0  0  0  0  0  0  0  0  0  0  0
   -1.8591   -2.8447   -2.1599 H   0  0  0  0  0  0  0  0  0  0  0  0
   -0.6273   -3.6495   -1.1223 H   0  0  0  0  0  0  0  0  0  0  0  0
   -1.9664   -1.4850    1.7881 H   0  0  0  0  0  0  0  0  0  0  0  0
   -3.5913    4.0822   -0.5397 H   0  0  0  0  0  0  0  0  0  0  0  0
   -1.2083    4.7776   -0.2548 H   0  0  0  0  0  0  0  0  0  0  0  0
    0.4778    3.0553    0.2735 H   0  0  0  0  0  0  0  0  0  0  0  0
  1  2  1  0
  2  3  1  0
  3  4  1  0
  4  5  2  0
  4  6  1  0
  6  7  1  0
  7  8  1  0
  8  9  1  0
  9 10  1  0
 10 11  2  0
 10 12  1  0
 12 13  1  0
 13 14  2  0
 13 15  1  0
 15 16  2  0
 16 17  1  0
 17 18  2  0
 18 19  1  0
 19 20  2  0
 20  6  1  0
 12  7  1  0
 20 15  1  0
  1 21  1  0
  1 22  1  0
  1 23  1  0
  2 24  1  0
  2 25  1  0
  6 26  1  0
  7 27  1  0
  8 28  1  0
  8 29  1  0
  9 30  1  0
  9 31  1  0
 12 32  1  0
 17 33  1  0
 18 34  1  0
 19 35  1  0
M  END
>  <Unnamed: 0>  (82) 
526

>  <ID>  (82) 
TRAIN_0526

>  <Canonical_Smiles>  (82) 
CCOC(=O)C1C2CCC(=O)C2C(=O)c3ncccc13

>  <Inhibition>  (82) 
10.8

>  <TDC_conf_true_inhibitor>  (82) 
0

>  <TDC_conf_non_inhibitor>  (82) 
1

>  <split>  (82) 
1

$$$$
82
     RDKit          3D

 38 41  0  0  0  0  0  0  0  0999 V2000
   -1.1047    2.6296    1.0145 C   0  0  0  0  0  0  0  0  0  0  0  0
   -2.0013    1.4862    0.5803 C   0  0  0  0  0  0  0  0  0  0  0  0
   -3.2678    1.7595    0.5198 N   0  0  0  0  0  0  0  0  0  0  0  0
   -4.1674    0.7366    0.2239 C   0  0  0  0  0  0  0  0  0  0  0  0
   -5.5289    1.0406    0.1426 C   0  0  0  0  0  0  0  0  0  0  0  0
   -6.4670    0.0399   -0.1249 C   0  0  0  0  0  0  0  0  0  0  0  0
   -6.0400   -1.2738   -0.3100 C   0  0  0  0  0  0  0  0  0  0  0  0
   -7.3062   -2.6289   -0.6718 Br  0  0  0  0  0  0  0  0  0  0  0  0
   -4.6871   -1.5930   -0.2318 C   0  0  0  0  0  0  0  0  0  0  0  0
   -3.7585   -0.5786    0.0368 C   0  0  0  0  0  0  0  0  0  0  0  0
   -2.3144   -0.8661    0.1024 C   0  0  0  0  0  0  0  0  0  0  0  0
   -1.9592   -2.0295   -0.0827 O   0  0  0  0  0  0  0  0  0  0  0  0
   -1.4658    0.2292    0.3291 N   0  0  0  0  0  0  0  0  0  0  0  0
   -0.0509    0.0018    0.2510 C   0  0  0  0  0  0  0  0  0  0  0  0
    0.5410   -1.0782    0.9200 C   0  0  0  0  0  0  0  0  0  0  0  0
    1.9214   -1.3042    0.8431 C   0  0  0  0  0  0  0  0  0  0  0  0
    2.7425   -0.4628    0.0829 C   0  0  0  0  0  0  0  0  0  0  0  0
    2.1503    0.6038   -0.6057 C   0  0  0  0  0  0  0  0  0  0  0  0
    0.7701    0.8301   -0.5268 C   0  0  0  0  0  0  0  0  0  0  0  0
    4.1780   -0.7001    0.0047 C   0  0  0  0  0  0  0  0  0  0  0  0
    4.8042   -1.7305    0.6708 N   0  0  0  0  0  0  0  0  0  0  0  0
    6.0943   -1.6509    0.3790 N   0  0  0  0  0  0  0  0  0  0  0  0
    6.1915   -0.5885   -0.4317 N   0  0  0  0  0  0  0  0  0  0  0  0
    7.4483   -0.1861   -1.0011 C   0  0  0  0  0  0  0  0  0  0  0  0
    5.0402    0.0472   -0.7095 N   0  0  0  0  0  0  0  0  0  0  0  0
   -1.6734    3.3143    1.6532 H   0  0  0  0  0  0  0  0  0  0  0  0
   -0.2455    2.2839    1.5930 H   0  0  0  0  0  0  0  0  0  0  0  0
   -0.7738    3.1918    0.1375 H   0  0  0  0  0  0  0  0  0  0  0  0
   -5.8583    2.0659    0.2936 H   0  0  0  0  0  0  0  0  0  0  0  0
   -7.5217    0.2964   -0.1838 H   0  0  0  0  0  0  0  0  0  0  0  0
   -4.3498   -2.6161   -0.3812 H   0  0  0  0  0  0  0  0  0  0  0  0
   -0.0603   -1.7551    1.5242 H   0  0  0  0  0  0  0  0  0  0  0  0
    2.3436   -2.1509    1.3822 H   0  0  0  0  0  0  0  0  0  0  0  0
    2.7590    1.2628   -1.2229 H   0  0  0  0  0  0  0  0  0  0  0  0
    0.3493    1.6382   -1.1195 H   0  0  0  0  0  0  0  0  0  0  0  0
    8.2310   -0.2997   -0.2471 H   0  0  0  0  0  0  0  0  0  0  0  0
    7.3848    0.8599   -1.3111 H   0  0  0  0  0  0  0  0  0  0  0  0
    7.6525   -0.8249   -1.8634 H   0  0  0  0  0  0  0  0  0  0  0  0
  1  2  1  0
  2  3  2  0
  3  4  1  0
  4  5  2  0
  5  6  1  0
  6  7  2  0
  7  8  1  0
  7  9  1  0
  9 10  2  0
 10 11  1  0
 11 12  2  0
 11 13  1  0
 13 14  1  0
 14 15  2  0
 15 16  1  0
 16 17  2  0
 17 18  1  0
 18 19  2  0
 17 20  1  0
 20 21  1  0
 21 22  2  0
 22 23  1  0
 23 24  1  0
 23 25  1  0
 13  2  1  0
 10  4  1  0
 19 14  1  0
 25 20  2  0
  1 26  1  0
  1 27  1  0
  1 28  1  0
  5 29  1  0
  6 30  1  0
  9 31  1  0
 15 32  1  0
 16 33  1  0
 18 34  1  0
 19 35  1  0
 24 36  1  0
 24 37  1  0
 24 38  1  0
M  END
>  <Unnamed: 0>  (83) 
533

>  <ID>  (83) 
TRAIN_0533

>  <Canonical_Smiles>  (83) 
CC1=Nc2ccc(Br)cc2C(=O)N1c3ccc(cc3)c4nnn(C)n4

>  <Inhibition>  (83) 
28.1

>  <TDC_conf_true_inhibitor>  (83) 
1

>  <TDC_conf_non_inhibitor>  (83) 
0

>  <split>  (83) 
1

$$$$
83
     RDKit          3D

 42 45  0  0  0  0  0  0  0  0999 V2000
   -3.3249    4.2534    0.4126 C   0  0  0  0  0  0  0  0  0  0  0  0
   -3.4173    2.8137    0.4305 N   0  0  0  0  0  0  0  0  0  0  0  0
   -2.3897    1.9219    0.3154 C   0  0  0  0  0  0  0  0  0  0  0  0
   -2.9548    0.6646    0.3974 C   0  0  0  0  0  0  0  0  0  0  0  0
   -4.3357    0.9235    0.5644 C   0  0  0  0  0  0  0  0  0  0  0  0
   -4.6184    2.2285    0.5803 N   0  0  0  0  0  0  0  0  0  0  0  0
   -2.2216   -0.5868    0.3412 C   0  0  0  0  0  0  0  0  0  0  0  0
   -2.6888   -1.7209    1.0107 C   0  0  0  0  0  0  0  0  0  0  0  0
   -2.0972   -2.9413    1.0383 N   0  0  0  0  0  0  0  0  0  0  0  0
   -0.9328   -3.0117    0.3411 C   0  0  0  0  0  0  0  0  0  0  0  0
   -0.0237   -4.0863    0.1365 C   0  0  0  0  0  0  0  0  0  0  0  0
   -0.1774   -5.3176    0.6531 N   0  0  0  0  0  0  0  0  0  0  0  0
    0.9932   -3.7390   -0.6501 N   0  0  0  0  0  0  0  0  0  0  0  0
    0.7628   -2.4315   -0.9160 N   0  0  0  0  0  0  0  0  0  0  0  0
    1.7053   -1.7030   -1.7575 C   0  0  0  0  0  0  0  0  0  0  0  0
    2.4937   -0.6834   -0.9691 C   0  0  0  0  0  0  0  0  0  0  0  0
    3.3671   -1.0909    0.0494 C   0  0  0  0  0  0  0  0  0  0  0  0
    4.0821   -0.1500    0.7899 C   0  0  0  0  0  0  0  0  0  0  0  0
    3.9346    1.2108    0.5228 C   0  0  0  0  0  0  0  0  0  0  0  0
    3.0740    1.6450   -0.4946 C   0  0  0  0  0  0  0  0  0  0  0  0
    2.3640    0.6877   -1.2405 C   0  0  0  0  0  0  0  0  0  0  0  0
    2.8855    3.1132   -0.7869 C   0  0  0  0  0  0  0  0  0  0  0  0
    3.1633    3.4258   -2.0830 F   0  0  0  0  0  0  0  0  0  0  0  0
    1.6002    3.5175   -0.5760 F   0  0  0  0  0  0  0  0  0  0  0  0
    3.6641    3.9322   -0.0279 F   0  0  0  0  0  0  0  0  0  0  0  0
   -0.3959   -1.9425   -0.3626 C   0  0  0  0  0  0  0  0  0  0  0  0
   -1.0306   -0.6957   -0.3853 C   0  0  0  0  0  0  0  0  0  0  0  0
   -2.2813    4.5495    0.2799 H   0  0  0  0  0  0  0  0  0  0  0  0
   -3.7032    4.6348    1.3643 H   0  0  0  0  0  0  0  0  0  0  0  0
   -3.9274    4.6269   -0.4191 H   0  0  0  0  0  0  0  0  0  0  0  0
   -1.3670    2.2554    0.2043 H   0  0  0  0  0  0  0  0  0  0  0  0
   -5.1495    0.2174    0.6696 H   0  0  0  0  0  0  0  0  0  0  0  0
   -3.6064   -1.6794    1.5946 H   0  0  0  0  0  0  0  0  0  0  0  0
    0.3349   -6.0691    0.2086 H   0  0  0  0  0  0  0  0  0  0  0  0
   -1.0978   -5.5789    0.9921 H   0  0  0  0  0  0  0  0  0  0  0  0
    1.1208   -1.2350   -2.5580 H   0  0  0  0  0  0  0  0  0  0  0  0
    2.3855   -2.4246   -2.2250 H   0  0  0  0  0  0  0  0  0  0  0  0
    3.4868   -2.1499    0.2800 H   0  0  0  0  0  0  0  0  0  0  0  0
    4.7503   -0.4804    1.5822 H   0  0  0  0  0  0  0  0  0  0  0  0
    4.4951    1.9317    1.1167 H   0  0  0  0  0  0  0  0  0  0  0  0
    1.6975    1.0254   -2.0344 H   0  0  0  0  0  0  0  0  0  0  0  0
   -0.6195    0.1391   -0.9392 H   0  0  0  0  0  0  0  0  0  0  0  0
  1  2  1  0
  2  3  1  0
  3  4  2  0
  4  5  1  0
  5  6  2  0
  4  7  1  0
  7  8  2  0
  8  9  1  0
  9 10  2  0
 10 11  1  0
 11 12  1  0
 11 13  2  0
 13 14  1  0
 14 15  1  0
 15 16  1  0
 16 17  2  0
 17 18  1  0
 18 19  2  0
 19 20  1  0
 20 21  2  0
 20 22  1  0
 22 23  1  0
 22 24  1  0
 22 25  1  0
 14 26  1  0
 26 27  2  0
  6  2  1  0
 27  7  1  0
 26 10  1  0
 21 16  1  0
  1 28  1  0
  1 29  1  0
  1 30  1  0
  3 31  1  0
  5 32  1  0
  8 33  1  0
 12 34  1  0
 12 35  1  0
 15 36  1  0
 15 37  1  0
 17 38  1  0
 18 39  1  0
 19 40  1  0
 21 41  1  0
 27 42  1  0
M  END
>  <Unnamed: 0>  (84) 
534

>  <ID>  (84) 
TRAIN_0534

>  <Canonical_Smiles>  (84) 
Cn1cc(cn1)c2cnc3c(N)nn(Cc4cccc(c4)C(F)(F)F)c3c2

>  <Inhibition>  (84) 
97.9

>  <TDC_conf_true_inhibitor>  (84) 
1

>  <TDC_conf_non_inhibitor>  (84) 
0

>  <split>  (84) 
1

$$$$
84
     RDKit          3D

 45 49  0  0  0  0  0  0  0  0999 V2000
   -4.5903   -0.0866    0.2804 C   0  0  0  0  0  0  0  0  0  0  0  0
   -3.6145    1.0172    0.5728 C   0  0  0  0  0  0  0  0  0  0  0  0
   -4.0075    2.0743    1.4086 C   0  0  0  0  0  0  0  0  0  0  0  0
   -3.1198    3.1067    1.7244 C   0  0  0  0  0  0  0  0  0  0  0  0
   -1.8252    3.1012    1.2104 C   0  0  0  0  0  0  0  0  0  0  0  0
   -1.4204    2.0699    0.3661 C   0  0  0  0  0  0  0  0  0  0  0  0
   -2.3167    1.0452    0.0328 C   0  0  0  0  0  0  0  0  0  0  0  0
   -1.8173   -0.0039   -0.8839 C   0  0  0  0  0  0  0  0  0  0  0  0
   -2.4756   -0.0549   -2.2241 C   0  0  0  0  0  0  0  0  0  0  0  0
   -2.0403   -0.9827   -3.0872 C   0  0  0  0  0  0  0  0  0  0  0  0
   -0.9898   -1.8409   -2.7020 C   0  0  0  0  0  0  0  0  0  0  0  0
   -0.3676   -2.8219   -3.3179 N   0  0  0  0  0  0  0  0  0  0  0  0
    0.6066   -3.2985   -2.4679 N   0  0  0  0  0  0  0  0  0  0  0  0
    0.5582   -2.5932   -1.3517 C   0  0  0  0  0  0  0  0  0  0  0  0
    1.4367   -2.7374   -0.1602 C   0  0  0  0  0  0  0  0  0  0  0  0
    2.5550   -1.7106   -0.1175 C   0  0  0  0  0  0  0  0  0  0  0  0
    3.6238   -1.8883   -1.0249 C   0  0  0  0  0  0  0  0  0  0  0  0
    4.6943   -0.9967   -1.0758 C   0  0  0  0  0  0  0  0  0  0  0  0
    4.7200    0.0976   -0.2210 C   0  0  0  0  0  0  0  0  0  0  0  0
    3.6694    0.2970    0.6817 C   0  0  0  0  0  0  0  0  0  0  0  0
    3.7155    1.4809    1.5835 C   0  0  0  0  0  0  0  0  0  0  0  0
    4.6414    2.2843    1.5606 O   0  0  0  0  0  0  0  0  0  0  0  0
    2.6558    1.6311    2.4486 N   0  0  0  0  0  0  0  0  0  0  0  0
    1.5939    0.7756    2.5159 C   0  0  0  0  0  0  0  0  0  0  0  0
    1.5127   -0.3005    1.7261 C   0  0  0  0  0  0  0  0  0  0  0  0
    2.5751   -0.5949    0.7495 C   0  0  0  0  0  0  0  0  0  0  0  0
   -0.4540   -1.6693   -1.4423 N   0  0  0  0  0  0  0  0  0  0  0  0
   -0.8440   -0.7696   -0.4923 N   0  0  0  0  0  0  0  0  0  0  0  0
   -5.3693   -0.1369    1.0492 H   0  0  0  0  0  0  0  0  0  0  0  0
   -5.0754    0.0821   -0.6856 H   0  0  0  0  0  0  0  0  0  0  0  0
   -4.0922   -1.0614    0.2740 H   0  0  0  0  0  0  0  0  0  0  0  0
   -5.0099    2.0965    1.8328 H   0  0  0  0  0  0  0  0  0  0  0  0
   -3.4393    3.9137    2.3800 H   0  0  0  0  0  0  0  0  0  0  0  0
   -1.1329    3.9001    1.4644 H   0  0  0  0  0  0  0  0  0  0  0  0
   -0.4081    2.0669   -0.0333 H   0  0  0  0  0  0  0  0  0  0  0  0
   -3.2623    0.6472   -2.4696 H   0  0  0  0  0  0  0  0  0  0  0  0
   -2.4621   -1.0837   -4.0804 H   0  0  0  0  0  0  0  0  0  0  0  0
    1.8966   -3.7353   -0.1817 H   0  0  0  0  0  0  0  0  0  0  0  0
    0.8404   -2.7397    0.7564 H   0  0  0  0  0  0  0  0  0  0  0  0
    3.6171   -2.7351   -1.7124 H   0  0  0  0  0  0  0  0  0  0  0  0
    5.5030   -1.1556   -1.7848 H   0  0  0  0  0  0  0  0  0  0  0  0
    5.5527    0.7964   -0.2583 H   0  0  0  0  0  0  0  0  0  0  0  0
    2.7014    2.4390    3.0580 H   0  0  0  0  0  0  0  0  0  0  0  0
    0.8198    1.0180    3.2377 H   0  0  0  0  0  0  0  0  0  0  0  0
    0.6451   -0.9429    1.8018 H   0  0  0  0  0  0  0  0  0  0  0  0
  1  2  1  0
  2  3  2  0
  3  4  1  0
  4  5  2  0
  5  6  1  0
  6  7  2  0
  7  8  1  0
  8  9  1  0
  9 10  2  0
 10 11  1  0
 11 12  2  0
 12 13  1  0
 13 14  2  0
 14 15  1  0
 15 16  1  0
 16 17  2  0
 17 18  1  0
 18 19  2  0
 19 20  1  0
 20 21  1  0
 21 22  2  0
 21 23  1  0
 23 24  1  0
 24 25  2  0
 25 26  1  0
 14 27  1  0
 27 28  1  0
  7  2  1  0
 28  8  2  0
 27 11  1  0
 26 16  1  0
 26 20  2  0
  1 29  1  0
  1 30  1  0
  1 31  1  0
  3 32  1  0
  4 33  1  0
  5 34  1  0
  6 35  1  0
  9 36  1  0
 10 37  1  0
 15 38  1  0
 15 39  1  0
 17 40  1  0
 18 41  1  0
 19 42  1  0
 23 43  1  0
 24 44  1  0
 25 45  1  0
M  END
>  <Unnamed: 0>  (85) 
536

>  <ID>  (85) 
TRAIN_0536

>  <Canonical_Smiles>  (85) 
Cc1ccccc1c2ccc3nnc(Cc4cccc5C(=O)NC=Cc45)n3n2

>  <Inhibition>  (85) 
47.1

>  <TDC_conf_true_inhibitor>  (85) 
1

>  <TDC_conf_non_inhibitor>  (85) 
0

>  <split>  (85) 
1

$$$$
85
     RDKit          3D

 31 33  0  0  0  0  0  0  0  0999 V2000
    4.7730   -1.3660    1.5045 C   0  0  0  0  0  0  0  0  0  0  0  0
    3.3740   -1.0000    1.0740 C   0  0  0  0  0  0  0  0  0  0  0  0
    2.4911   -1.8507    1.0510 O   0  0  0  0  0  0  0  0  0  0  0  0
    3.2616    0.3242    0.7167 N   0  0  0  0  0  0  0  0  0  0  0  0
    2.0809    0.8638    0.2914 C   0  0  0  0  0  0  0  0  0  0  0  0
    0.9164    0.2966    0.1520 N   0  0  0  0  0  0  0  0  0  0  0  0
   -0.0118    1.2094   -0.3065 C   0  0  0  0  0  0  0  0  0  0  0  0
    0.4854    2.4889   -0.5097 C   0  0  0  0  0  0  0  0  0  0  0  0
   -0.1655    3.7387   -0.9857 C   0  0  0  0  0  0  0  0  0  0  0  0
    2.1638    2.5142   -0.1065 S   0  0  0  0  0  0  0  0  0  0  0  0
   -1.4828    0.7347   -0.5453 C   0  0  0  0  0  0  0  0  0  0  0  0
   -2.5545    1.4769   -0.9943 C   0  0  0  0  0  0  0  0  0  0  0  0
   -3.6949    0.7227   -1.0813 N   0  0  0  0  0  0  0  0  0  0  0  0
   -3.3399   -0.4809   -0.6904 C   0  0  0  0  0  0  0  0  0  0  0  0
   -4.1061   -1.6756   -0.5749 C   0  0  0  0  0  0  0  0  0  0  0  0
   -3.5193   -2.8086   -0.1458 C   0  0  0  0  0  0  0  0  0  0  0  0
   -2.1101   -2.8380    0.2044 C   0  0  0  0  0  0  0  0  0  0  0  0
   -1.4242   -4.3179    0.7450 Cl  0  0  0  0  0  0  0  0  0  0  0  0
   -1.3783   -1.7176    0.0993 C   0  0  0  0  0  0  0  0  0  0  0  0
   -1.9861   -0.5404   -0.3458 N   0  0  0  0  0  0  0  0  0  0  0  0
    4.7187   -2.0227    2.3775 H   0  0  0  0  0  0  0  0  0  0  0  0
    5.3568   -0.4835    1.7809 H   0  0  0  0  0  0  0  0  0  0  0  0
    5.2752   -1.8852    0.6840 H   0  0  0  0  0  0  0  0  0  0  0  0
    4.0553    0.9448    0.7518 H   0  0  0  0  0  0  0  0  0  0  0  0
   -0.5697    3.5996   -1.9933 H   0  0  0  0  0  0  0  0  0  0  0  0
   -0.9793    4.0264   -0.3125 H   0  0  0  0  0  0  0  0  0  0  0  0
    0.5326    4.5816   -1.0296 H   0  0  0  0  0  0  0  0  0  0  0  0
   -2.5861    2.5216   -1.2661 H   0  0  0  0  0  0  0  0  0  0  0  0
   -5.1570   -1.6437   -0.8386 H   0  0  0  0  0  0  0  0  0  0  0  0
   -4.0941   -3.7248   -0.0541 H   0  0  0  0  0  0  0  0  0  0  0  0
   -0.3250   -1.6881    0.3478 H   0  0  0  0  0  0  0  0  0  0  0  0
  1  2  1  0
  2  3  2  0
  2  4  1  0
  4  5  1  0
  5  6  2  0
  6  7  1  0
  7  8  2  0
  8  9  1  0
  8 10  1  0
  7 11  1  0
 11 12  2  0
 12 13  1  0
 13 14  2  0
 14 15  1  0
 15 16  2  0
 16 17  1  0
 17 18  1  0
 17 19  2  0
 19 20  1  0
 10  5  1  0
 20 11  1  0
 20 14  1  0
  1 21  1  0
  1 22  1  0
  1 23  1  0
  4 24  1  0
  9 25  1  0
  9 26  1  0
  9 27  1  0
 12 28  1  0
 15 29  1  0
 16 30  1  0
 19 31  1  0
M  END
>  <Unnamed: 0>  (86) 
539

>  <ID>  (86) 
TRAIN_0539

>  <Canonical_Smiles>  (86) 
CC(=O)Nc1nc(c(C)s1)c2cnc3ccc(Cl)cn23

>  <Inhibition>  (86) 
37.4

>  <TDC_conf_true_inhibitor>  (86) 
0

>  <TDC_conf_non_inhibitor>  (86) 
1

>  <split>  (86) 
1

$$$$
86
     RDKit          3D

 44 45  0  0  0  0  0  0  0  0999 V2000
   -5.5798   -2.3245    1.2005 C   0  0  0  0  0  0  0  0  0  0  0  0
   -4.2128   -2.1879    0.8350 O   0  0  0  0  0  0  0  0  0  0  0  0
   -3.8163   -0.9739    0.3415 C   0  0  0  0  0  0  0  0  0  0  0  0
   -4.6277    0.1524    0.1821 C   0  0  0  0  0  0  0  0  0  0  0  0
   -4.0883    1.3360   -0.3284 C   0  0  0  0  0  0  0  0  0  0  0  0
   -4.7652    2.5099   -0.5225 O   0  0  0  0  0  0  0  0  0  0  0  0
   -6.1446    2.5297   -0.1792 C   0  0  0  0  0  0  0  0  0  0  0  0
   -2.7369    1.3845   -0.6858 C   0  0  0  0  0  0  0  0  0  0  0  0
   -1.9155    0.2605   -0.5482 C   0  0  0  0  0  0  0  0  0  0  0  0
   -0.4855    0.2867   -0.8862 C   0  0  0  0  0  0  0  0  0  0  0  0
    0.0014    0.9130   -1.9687 C   0  0  0  0  0  0  0  0  0  0  0  0
    1.4355    0.9534   -2.3590 C   0  0  0  0  0  0  0  0  0  0  0  0
    1.7742    1.3881   -3.4541 O   0  0  0  0  0  0  0  0  0  0  0  0
    2.4596    0.4314   -1.4421 C   0  0  0  0  0  0  0  0  0  0  0  0
    2.9964   -0.8277   -1.7434 C   0  0  0  0  0  0  0  0  0  0  0  0
    3.9659   -1.3985   -0.9181 C   0  0  0  0  0  0  0  0  0  0  0  0
    4.3862   -2.6395   -1.3057 O   0  0  0  0  0  0  0  0  0  0  0  0
    5.3809   -3.2660   -0.5046 C   0  0  0  0  0  0  0  0  0  0  0  0
    4.4123   -0.6923    0.1981 C   0  0  0  0  0  0  0  0  0  0  0  0
    3.9054    0.5859    0.4712 C   0  0  0  0  0  0  0  0  0  0  0  0
    4.3524    1.2384    1.5939 O   0  0  0  0  0  0  0  0  0  0  0  0
    5.6405    1.8128    1.3623 C   0  0  0  0  0  0  0  0  0  0  0  0
    2.9116    1.1544   -0.3346 C   0  0  0  0  0  0  0  0  0  0  0  0
    2.2289    2.8821    0.0758 Br  0  0  0  0  0  0  0  0  0  0  0  0
   -2.4661   -0.9108   -0.0180 C   0  0  0  0  0  0  0  0  0  0  0  0
   -5.7276   -3.3461    1.5641 H   0  0  0  0  0  0  0  0  0  0  0  0
   -6.2361   -2.1804    0.3358 H   0  0  0  0  0  0  0  0  0  0  0  0
   -5.8407   -1.6405    2.0148 H   0  0  0  0  0  0  0  0  0  0  0  0
   -5.6723    0.1101    0.4597 H   0  0  0  0  0  0  0  0  0  0  0  0
   -6.5270    3.5329   -0.3898 H   0  0  0  0  0  0  0  0  0  0  0  0
   -6.7131    1.8214   -0.7904 H   0  0  0  0  0  0  0  0  0  0  0  0
   -6.2891    2.3366    0.8889 H   0  0  0  0  0  0  0  0  0  0  0  0
   -2.3326    2.3212   -1.0635 H   0  0  0  0  0  0  0  0  0  0  0  0
    0.1574   -0.2635   -0.2047 H   0  0  0  0  0  0  0  0  0  0  0  0
   -0.6494    1.4246   -2.6722 H   0  0  0  0  0  0  0  0  0  0  0  0
    2.6530   -1.3694   -2.6232 H   0  0  0  0  0  0  0  0  0  0  0  0
    6.3040   -2.6769   -0.4892 H   0  0  0  0  0  0  0  0  0  0  0  0
    5.0108   -3.4499    0.5093 H   0  0  0  0  0  0  0  0  0  0  0  0
    5.6122   -4.2352   -0.9562 H   0  0  0  0  0  0  0  0  0  0  0  0
    5.1499   -1.1080    0.8765 H   0  0  0  0  0  0  0  0  0  0  0  0
    6.4088    1.0352    1.2970 H   0  0  0  0  0  0  0  0  0  0  0  0
    5.8790    2.4525    2.2168 H   0  0  0  0  0  0  0  0  0  0  0  0
    5.6487    2.4341    0.4596 H   0  0  0  0  0  0  0  0  0  0  0  0
   -1.8483   -1.7969    0.1135 H   0  0  0  0  0  0  0  0  0  0  0  0
  1  2  1  0
  2  3  1  0
  3  4  2  0
  4  5  1  0
  5  6  1  0
  6  7  1  0
  5  8  2  0
  8  9  1  0
  9 10  1  0
 10 11  2  0
 11 12  1  0
 12 13  2  0
 12 14  1  0
 14 15  2  0
 15 16  1  0
 16 17  1  0
 17 18  1  0
 16 19  2  0
 19 20  1  0
 20 21  1  0
 21 22  1  0
 20 23  2  0
 23 24  1  0
  9 25  2  0
 25  3  1  0
 23 14  1  0
  1 26  1  0
  1 27  1  0
  1 28  1  0
  4 29  1  0
  7 30  1  0
  7 31  1  0
  7 32  1  0
  8 33  1  0
 10 34  1  0
 11 35  1  0
 15 36  1  0
 18 37  1  0
 18 38  1  0
 18 39  1  0
 19 40  1  0
 22 41  1  0
 22 42  1  0
 22 43  1  0
 25 44  1  0
M  END
>  <Unnamed: 0>  (87) 
541

>  <ID>  (87) 
TRAIN_0541

>  <Canonical_Smiles>  (87) 
COc1cc(OC)cc(\C=C\C(=O)c2cc(OC)cc(OC)c2Br)c1

>  <Inhibition>  (87) 
94.6

>  <TDC_conf_true_inhibitor>  (87) 
1

>  <TDC_conf_non_inhibitor>  (87) 
0

>  <split>  (87) 
1

$$$$
87
     RDKit          3D

 38 40  0  0  0  0  0  0  0  0999 V2000
    4.7481   -0.6286    0.6196 C   0  0  0  0  0  0  0  0  0  0  0  0
    3.4682   -0.4015    0.0248 O   0  0  0  0  0  0  0  0  0  0  0  0
    2.4683   -1.1265    0.5856 C   0  0  0  0  0  0  0  0  0  0  0  0
    2.5880   -1.9447    1.4821 O   0  0  0  0  0  0  0  0  0  0  0  0
    1.1887   -0.7690   -0.0454 C   0  0  0  0  0  0  0  0  0  0  0  0
    0.1204   -1.5747   -0.2006 C   0  0  0  0  0  0  0  0  0  0  0  0
    0.1147   -3.0391    0.1056 C   0  0  0  0  0  0  0  0  0  0  0  0
   -0.9679   -0.8735   -0.7391 N   0  0  0  0  0  0  0  0  0  0  0  0
   -2.2522   -1.2951   -1.0642 C   0  0  0  0  0  0  0  0  0  0  0  0
   -3.0637   -0.5807   -1.6591 O   0  0  0  0  0  0  0  0  0  0  0  0
   -2.7156   -2.6716   -0.6693 C   0  0  0  0  0  0  0  0  0  0  0  0
   -0.5826    0.5456   -0.9574 C   0  0  0  0  0  0  0  0  0  0  0  0
   -0.7234    0.8919   -2.3300 O   0  0  0  0  0  0  0  0  0  0  0  0
   -1.2609    1.5568   -0.0625 C   0  0  0  0  0  0  0  0  0  0  0  0
   -2.5833    1.9834   -0.0677 C   0  0  0  0  0  0  0  0  0  0  0  0
   -2.9986    2.9455    0.8620 C   0  0  0  0  0  0  0  0  0  0  0  0
   -2.0943    3.4933    1.7833 C   0  0  0  0  0  0  0  0  0  0  0  0
   -0.7603    3.0943    1.7763 C   0  0  0  0  0  0  0  0  0  0  0  0
   -0.3814    2.1391    0.8463 C   0  0  0  0  0  0  0  0  0  0  0  0
    0.9572    1.6184    0.6214 C   0  0  0  0  0  0  0  0  0  0  0  0
    1.9401    1.9613    1.2587 O   0  0  0  0  0  0  0  0  0  0  0  0
    0.9289    0.6178   -0.5256 C   0  0  0  0  0  0  0  0  0  0  0  0
    1.7730    0.9509   -1.6250 O   0  0  0  0  0  0  0  0  0  0  0  0
    4.7297   -0.3650    1.6818 H   0  0  0  0  0  0  0  0  0  0  0  0
    5.0539   -1.6704    0.4822 H   0  0  0  0  0  0  0  0  0  0  0  0
    5.4738    0.0155    0.1156 H   0  0  0  0  0  0  0  0  0  0  0  0
   -0.2243   -3.6183   -0.7564 H   0  0  0  0  0  0  0  0  0  0  0  0
   -0.5056   -3.2578    0.9784 H   0  0  0  0  0  0  0  0  0  0  0  0
    1.1123   -3.4306    0.3219 H   0  0  0  0  0  0  0  0  0  0  0  0
   -2.2570   -3.4296   -1.3053 H   0  0  0  0  0  0  0  0  0  0  0  0
   -3.7994   -2.7352   -0.8199 H   0  0  0  0  0  0  0  0  0  0  0  0
   -2.5405   -2.8554    0.3912 H   0  0  0  0  0  0  0  0  0  0  0  0
    0.1715    0.8120   -2.7130 H   0  0  0  0  0  0  0  0  0  0  0  0
   -3.2954    1.5964   -0.7923 H   0  0  0  0  0  0  0  0  0  0  0  0
   -4.0350    3.2780    0.8604 H   0  0  0  0  0  0  0  0  0  0  0  0
   -2.4351    4.2435    2.4933 H   0  0  0  0  0  0  0  0  0  0  0  0
   -0.0399    3.5243    2.4653 H   0  0  0  0  0  0  0  0  0  0  0  0
    2.6794    0.9992   -1.2553 H   0  0  0  0  0  0  0  0  0  0  0  0
  1  2  1  0
  2  3  1  0
  3  4  2  0
  3  5  1  0
  5  6  2  0
  6  7  1  0
  6  8  1  0
  8  9  1  0
  9 10  2  0
  9 11  1  0
  8 12  1  0
 12 13  1  0
 12 14  1  0
 14 15  2  0
 15 16  1  0
 16 17  2  0
 17 18  1  0
 18 19  2  0
 19 20  1  0
 20 21  2  0
 20 22  1  0
 22 23  1  0
 22  5  1  0
 22 12  1  0
 19 14  1  0
  1 24  1  0
  1 25  1  0
  1 26  1  0
  7 27  1  0
  7 28  1  0
  7 29  1  0
 11 30  1  0
 11 31  1  0
 11 32  1  0
 13 33  1  0
 15 34  1  0
 16 35  1  0
 17 36  1  0
 18 37  1  0
 23 38  1  0
M  END
>  <Unnamed: 0>  (88) 
555

>  <ID>  (88) 
TRAIN_0555

>  <Canonical_Smiles>  (88) 
COC(=O)C1=C(C)N(C(=O)C)C2(O)c3ccccc3C(=O)C12O

>  <Inhibition>  (88) 
30.0

>  <TDC_conf_true_inhibitor>  (88) 
0

>  <TDC_conf_non_inhibitor>  (88) 
1

>  <split>  (88) 
1

$$$$
88
     RDKit          3D

 43 48  0  0  0  0  0  0  0  0999 V2000
    1.7387    1.9487   -1.6267 C   0  0  0  0  0  0  0  0  0  0  0  0
    2.4741    0.7085   -1.1858 C   0  0  0  0  0  0  0  0  0  0  0  0
    1.8898   -0.5544   -1.3214 C   0  0  0  0  0  0  0  0  0  0  0  0
    2.5728   -1.6983   -0.8938 C   0  0  0  0  0  0  0  0  0  0  0  0
    3.8343   -1.6268   -0.3205 C   0  0  0  0  0  0  0  0  0  0  0  0
    4.4480   -2.7568    0.0734 N   0  0  0  0  0  0  0  0  0  0  0  0
    5.6722   -2.6498    0.6352 C   0  0  0  0  0  0  0  0  0  0  0  0
    6.3303   -1.4503    0.8280 C   0  0  0  0  0  0  0  0  0  0  0  0
    5.6941   -0.2851    0.4180 C   0  0  0  0  0  0  0  0  0  0  0  0
    4.4242   -0.3545   -0.1700 C   0  0  0  0  0  0  0  0  0  0  0  0
    3.7437    0.8000   -0.5996 C   0  0  0  0  0  0  0  0  0  0  0  0
    1.0273    2.5563   -0.5233 N   0  0  0  0  0  0  0  0  0  0  0  0
    1.5823    3.5604    0.1961 N   0  0  0  0  0  0  0  0  0  0  0  0
    0.7021    3.9136    1.1333 N   0  0  0  0  0  0  0  0  0  0  0  0
   -0.4087    3.1334    0.9809 C   0  0  0  0  0  0  0  0  0  0  0  0
   -1.5546    3.1514    1.7098 N   0  0  0  0  0  0  0  0  0  0  0  0
   -2.4569    2.2314    1.2715 C   0  0  0  0  0  0  0  0  0  0  0  0
   -2.2522    1.3573    0.1964 C   0  0  0  0  0  0  0  0  0  0  0  0
   -1.1140    1.3494   -0.5518 N   0  0  0  0  0  0  0  0  0  0  0  0
   -0.2312    2.2626   -0.0873 C   0  0  0  0  0  0  0  0  0  0  0  0
   -3.2800    0.4014   -0.1987 C   0  0  0  0  0  0  0  0  0  0  0  0
   -3.6460    0.2913   -1.5253 C   0  0  0  0  0  0  0  0  0  0  0  0
   -4.8888   -0.8447   -1.7709 S   0  0  0  0  0  0  0  0  0  0  0  0
   -4.9464   -1.2530   -0.1002 C   0  0  0  0  0  0  0  0  0  0  0  0
   -5.7952   -2.2037    0.5017 C   0  0  0  0  0  0  0  0  0  0  0  0
   -5.6990   -2.4275    1.8755 C   0  0  0  0  0  0  0  0  0  0  0  0
   -4.7765   -1.7279    2.6375 C   0  0  0  0  0  0  0  0  0  0  0  0
   -3.9376   -0.7830    2.0378 C   0  0  0  0  0  0  0  0  0  0  0  0
   -4.0170   -0.5171    0.6442 C   0  0  0  0  0  0  0  0  0  0  0  0
    1.0131    1.7196   -2.4158 H   0  0  0  0  0  0  0  0  0  0  0  0
    2.4346    2.6892   -2.0383 H   0  0  0  0  0  0  0  0  0  0  0  0
    0.8956   -0.6660   -1.7518 H   0  0  0  0  0  0  0  0  0  0  0  0
    2.1048   -2.6738   -1.0063 H   0  0  0  0  0  0  0  0  0  0  0  0
    6.1238   -3.5905    0.9375 H   0  0  0  0  0  0  0  0  0  0  0  0
    7.3121   -1.4226    1.2864 H   0  0  0  0  0  0  0  0  0  0  0  0
    6.1895    0.6719    0.5604 H   0  0  0  0  0  0  0  0  0  0  0  0
    4.2064    1.7774   -0.4666 H   0  0  0  0  0  0  0  0  0  0  0  0
   -3.3920    2.2268    1.8252 H   0  0  0  0  0  0  0  0  0  0  0  0
   -3.2482    0.8395   -2.3694 H   0  0  0  0  0  0  0  0  0  0  0  0
   -6.5114   -2.7614   -0.0957 H   0  0  0  0  0  0  0  0  0  0  0  0
   -6.3472   -3.1624    2.3473 H   0  0  0  0  0  0  0  0  0  0  0  0
   -4.6991   -1.9174    3.7057 H   0  0  0  0  0  0  0  0  0  0  0  0
   -3.2117   -0.2635    2.6591 H   0  0  0  0  0  0  0  0  0  0  0  0
  1  2  1  0
  2  3  2  0
  3  4  1  0
  4  5  2  0
  5  6  1  0
  6  7  2  0
  7  8  1  0
  8  9  2  0
  9 10  1  0
 10 11  2  0
  1 12  1  0
 12 13  1  0
 13 14  2  0
 14 15  1  0
 15 16  2  0
 16 17  1  0
 17 18  2  0
 18 19  1  0
 19 20  2  0
 18 21  1  0
 21 22  2  0
 22 23  1  0
 23 24  1  0
 24 25  2  0
 25 26  1  0
 26 27  2  0
 27 28  1  0
 28 29  2  0
 11  2  1  0
 10  5  1  0
 20 12  1  0
 20 15  1  0
 29 21  1  0
 29 24  1  0
  1 30  1  0
  1 31  1  0
  3 32  1  0
  4 33  1  0
  7 34  1  0
  8 35  1  0
  9 36  1  0
 11 37  1  0
 17 38  1  0
 22 39  1  0
 25 40  1  0
 26 41  1  0
 27 42  1  0
 28 43  1  0
M  END
>  <Unnamed: 0>  (89) 
560

>  <ID>  (89) 
TRAIN_0560

>  <Canonical_Smiles>  (89) 
C(c1ccc2ncccc2c1)n3nnc4ncc(nc34)c5csc6ccccc56

>  <Inhibition>  (89) 
33.4

>  <TDC_conf_true_inhibitor>  (89) 
1

>  <TDC_conf_non_inhibitor>  (89) 
0

>  <split>  (89) 
1

$$$$
89
     RDKit          3D

 48 51  0  0  0  0  0  0  0  0999 V2000
   -1.1952    2.2974   -1.3268 C   0  0  0  0  0  0  0  0  0  0  0  0
   -0.7070    1.3302   -0.2369 C   0  0  0  0  0  0  0  0  0  0  0  0
    0.6659    0.8133   -0.6282 C   0  0  0  0  0  0  0  0  0  0  0  0
    0.9600    0.3184   -1.8130 N   0  0  0  0  0  0  0  0  0  0  0  0
    2.2946   -0.0390   -1.8473 C   0  0  0  0  0  0  0  0  0  0  0  0
    3.0209    0.1900   -0.6924 C   0  0  0  0  0  0  0  0  0  0  0  0
    1.9763    0.8812    0.4843 S   0  0  0  0  0  0  0  0  0  0  0  0
    4.4300   -0.0940   -0.4024 C   0  0  0  0  0  0  0  0  0  0  0  0
    5.2304    0.8048    0.3221 C   0  0  0  0  0  0  0  0  0  0  0  0
    6.5763    0.5226    0.5794 C   0  0  0  0  0  0  0  0  0  0  0  0
    7.1282   -0.6627    0.1090 C   0  0  0  0  0  0  0  0  0  0  0  0
    8.4340   -0.9794    0.3357 O   0  0  0  0  0  0  0  0  0  0  0  0
    6.3593   -1.5656   -0.6128 C   0  0  0  0  0  0  0  0  0  0  0  0
    5.0153   -1.2818   -0.8694 C   0  0  0  0  0  0  0  0  0  0  0  0
   -1.7033    0.1574    0.0997 C   0  0  0  0  0  0  0  0  0  0  0  0
   -1.0726   -0.6195    1.1577 O   0  0  0  0  0  0  0  0  0  0  0  0
   -1.8998   -0.8163   -1.1010 C   0  0  0  0  0  0  0  0  0  0  0  0
   -2.6511   -2.0140   -0.7674 N   0  0  0  0  0  0  0  0  0  0  0  0
   -2.1484   -3.2442   -0.4681 C   0  0  0  0  0  0  0  0  0  0  0  0
   -3.1344   -4.0670   -0.1959 N   0  0  0  0  0  0  0  0  0  0  0  0
   -4.2408   -3.2858   -0.3672 C   0  0  0  0  0  0  0  0  0  0  0  0
   -3.9943   -2.0187   -0.7084 N   0  0  0  0  0  0  0  0  0  0  0  0
   -2.9929    0.7574    0.6931 C   0  0  0  0  0  0  0  0  0  0  0  0
   -3.1020    1.0028    2.0791 C   0  0  0  0  0  0  0  0  0  0  0  0
   -4.2669    1.5477    2.6265 C   0  0  0  0  0  0  0  0  0  0  0  0
   -5.3307    1.8718    1.7957 C   0  0  0  0  0  0  0  0  0  0  0  0
   -6.4430    2.3986    2.3230 F   0  0  0  0  0  0  0  0  0  0  0  0
   -5.2466    1.6778    0.4276 C   0  0  0  0  0  0  0  0  0  0  0  0
   -4.0828    1.1356   -0.1099 C   0  0  0  0  0  0  0  0  0  0  0  0
   -4.0079    1.0313   -1.4431 F   0  0  0  0  0  0  0  0  0  0  0  0
   -1.4212    1.7793   -2.2644 H   0  0  0  0  0  0  0  0  0  0  0  0
   -0.4281    3.0493   -1.5488 H   0  0  0  0  0  0  0  0  0  0  0  0
   -2.0879    2.8438   -1.0105 H   0  0  0  0  0  0  0  0  0  0  0  0
   -0.5787    1.9311    0.6761 H   0  0  0  0  0  0  0  0  0  0  0  0
    2.6972   -0.4643   -2.7592 H   0  0  0  0  0  0  0  0  0  0  0  0
    4.8188    1.7436    0.6863 H   0  0  0  0  0  0  0  0  0  0  0  0
    7.1697    1.2370    1.1411 H   0  0  0  0  0  0  0  0  0  0  0  0
    8.8424   -0.2668    0.8543 H   0  0  0  0  0  0  0  0  0  0  0  0
    6.8022   -2.4898   -0.9735 H   0  0  0  0  0  0  0  0  0  0  0  0
    4.4289   -2.0082   -1.4275 H   0  0  0  0  0  0  0  0  0  0  0  0
   -1.7596   -1.1817    1.5646 H   0  0  0  0  0  0  0  0  0  0  0  0
   -0.9339   -1.1981   -1.4461 H   0  0  0  0  0  0  0  0  0  0  0  0
   -2.3835   -0.3579   -1.9671 H   0  0  0  0  0  0  0  0  0  0  0  0
   -1.0914   -3.4734   -0.4563 H   0  0  0  0  0  0  0  0  0  0  0  0
   -5.2520   -3.6492   -0.2357 H   0  0  0  0  0  0  0  0  0  0  0  0
   -2.2754    0.7776    2.7521 H   0  0  0  0  0  0  0  0  0  0  0  0
   -4.3476    1.7246    3.6951 H   0  0  0  0  0  0  0  0  0  0  0  0
   -6.0716    1.9528   -0.2189 H   0  0  0  0  0  0  0  0  0  0  0  0
  1  2  1  0
  2  3  1  0
  3  4  2  0
  4  5  1  0
  5  6  2  0
  6  7  1  0
  6  8  1  0
  8  9  2  0
  9 10  1  0
 10 11  2  0
 11 12  1  0
 11 13  1  0
 13 14  2  0
  2 15  1  0
 15 16  1  0
 15 17  1  0
 17 18  1  0
 18 19  1  0
 19 20  2  0
 20 21  1  0
 21 22  2  0
 15 23  1  0
 23 24  2  0
 24 25  1  0
 25 26  2  0
 26 27  1  0
 26 28  1  0
 28 29  2  0
 29 30  1  0
  7  3  1  0
 14  8  1  0
 22 18  1  0
 29 23  1  0
  1 31  1  0
  1 32  1  0
  1 33  1  0
  2 34  1  0
  5 35  1  0
  9 36  1  0
 10 37  1  0
 12 38  1  0
 13 39  1  0
 14 40  1  0
 16 41  1  0
 17 42  1  0
 17 43  1  0
 19 44  1  0
 21 45  1  0
 24 46  1  0
 25 47  1  0
 28 48  1  0
M  END
>  <Unnamed: 0>  (90) 
564

>  <ID>  (90) 
TRAIN_0564

>  <Canonical_Smiles>  (90) 
CC(c1ncc(s1)c2ccc(O)cc2)C(O)(Cn3cncn3)c4ccc(F)cc4F

>  <Inhibition>  (90) 
92.9

>  <TDC_conf_true_inhibitor>  (90) 
1

>  <TDC_conf_non_inhibitor>  (90) 
0

>  <split>  (90) 
1

$$$$
90
     RDKit          3D

 36 38  0  0  0  0  0  0  0  0999 V2000
    6.4314    0.2206   -1.1991 C   0  0  0  0  0  0  0  0  0  0  0  0
    5.1540   -0.1661   -0.6903 O   0  0  0  0  0  0  0  0  0  0  0  0
    4.4111    0.8693   -0.2247 C   0  0  0  0  0  0  0  0  0  0  0  0
    4.7493    2.0424   -0.2152 O   0  0  0  0  0  0  0  0  0  0  0  0
    3.0987    0.3872    0.2864 C   0  0  0  0  0  0  0  0  0  0  0  0
    2.2079    1.3296    0.8151 C   0  0  0  0  0  0  0  0  0  0  0  0
    0.9636    0.9270    1.3064 C   0  0  0  0  0  0  0  0  0  0  0  0
    0.5907   -0.4245    1.2801 C   0  0  0  0  0  0  0  0  0  0  0  0
   -0.7638   -0.8467    1.7930 C   0  0  0  0  0  0  0  0  0  0  0  0
   -1.8282   -0.4672    0.8858 N   0  0  0  0  0  0  0  0  0  0  0  0
   -2.2760   -1.3088   -0.1951 C   0  0  0  0  0  0  0  0  0  0  0  0
   -1.2919   -1.3367   -1.1944 O   0  0  0  0  0  0  0  0  0  0  0  0
   -3.4849   -0.6017   -0.6827 C   0  0  0  0  0  0  0  0  0  0  0  0
   -4.3425   -0.8788   -1.7116 C   0  0  0  0  0  0  0  0  0  0  0  0
   -5.4139   -0.0923   -1.9752 N   0  0  0  0  0  0  0  0  0  0  0  0
   -5.6150    1.0029   -1.1884 C   0  0  0  0  0  0  0  0  0  0  0  0
   -4.7978    1.3640   -0.1337 C   0  0  0  0  0  0  0  0  0  0  0  0
   -3.7296    0.5255    0.0883 C   0  0  0  0  0  0  0  0  0  0  0  0
   -2.6799    0.6015    1.1085 C   0  0  0  0  0  0  0  0  0  0  0  0
   -2.6181    1.4493    1.9767 O   0  0  0  0  0  0  0  0  0  0  0  0
    1.4818   -1.3650    0.7461 C   0  0  0  0  0  0  0  0  0  0  0  0
    2.7277   -0.9634    0.2534 C   0  0  0  0  0  0  0  0  0  0  0  0
    6.9446   -0.6806   -1.5458 H   0  0  0  0  0  0  0  0  0  0  0  0
    7.0348    0.6812   -0.4106 H   0  0  0  0  0  0  0  0  0  0  0  0
    6.3159    0.9017   -2.0481 H   0  0  0  0  0  0  0  0  0  0  0  0
    2.4782    2.3839    0.8472 H   0  0  0  0  0  0  0  0  0  0  0  0
    0.2822    1.6755    1.7113 H   0  0  0  0  0  0  0  0  0  0  0  0
   -0.8104   -1.9299    1.9540 H   0  0  0  0  0  0  0  0  0  0  0  0
   -0.9324   -0.3754    2.7690 H   0  0  0  0  0  0  0  0  0  0  0  0
   -2.5052   -2.3139    0.1724 H   0  0  0  0  0  0  0  0  0  0  0  0
   -0.7147   -0.5784   -0.9982 H   0  0  0  0  0  0  0  0  0  0  0  0
   -4.2088   -1.7344   -2.3654 H   0  0  0  0  0  0  0  0  0  0  0  0
   -6.4870    1.5976   -1.4491 H   0  0  0  0  0  0  0  0  0  0  0  0
   -4.9815    2.2398    0.4737 H   0  0  0  0  0  0  0  0  0  0  0  0
    1.2120   -2.4186    0.7025 H   0  0  0  0  0  0  0  0  0  0  0  0
    3.3975   -1.7163   -0.1554 H   0  0  0  0  0  0  0  0  0  0  0  0
  1  2  1  0
  2  3  1  0
  3  4  2  0
  3  5  1  0
  5  6  2  0
  6  7  1  0
  7  8  2  0
  8  9  1  0
  9 10  1  0
 10 11  1  0
 11 12  1  0
 11 13  1  0
 13 14  2  0
 14 15  1  0
 15 16  2  0
 16 17  1  0
 17 18  2  0
 18 19  1  0
 19 20  2  0
  8 21  1  0
 21 22  2  0
 22  5  1  0
 19 10  1  0
 18 13  1  0
  1 23  1  0
  1 24  1  0
  1 25  1  0
  6 26  1  0
  7 27  1  0
  9 28  1  0
  9 29  1  0
 11 30  1  0
 12 31  1  0
 14 32  1  0
 16 33  1  0
 17 34  1  0
 21 35  1  0
 22 36  1  0
M  END
>  <Unnamed: 0>  (91) 
572

>  <ID>  (91) 
TRAIN_0572

>  <Canonical_Smiles>  (91) 
COC(=O)c1ccc(CN2C(O)c3cnccc3C2=O)cc1

>  <Inhibition>  (91) 
2.62

>  <TDC_conf_true_inhibitor>  (91) 
0

>  <TDC_conf_non_inhibitor>  (91) 
1

>  <split>  (91) 
1

$$$$
91
     RDKit          3D

 34 36  0  0  0  0  0  0  0  0999 V2000
   -0.0062    3.1970   -1.3193 C   0  0  0  0  0  0  0  0  0  0  0  0
    0.2081    1.6308   -2.1998 S   0  0  0  0  0  0  0  0  0  0  0  0
   -0.6733    0.5686   -1.0970 C   0  0  0  0  0  0  0  0  0  0  0  0
   -0.0135   -0.1320   -0.1395 C   0  0  0  0  0  0  0  0  0  0  0  0
   -0.8293   -1.0218    0.7616 C   0  0  0  0  0  0  0  0  0  0  0  0
   -0.3189   -1.6307    1.6986 O   0  0  0  0  0  0  0  0  0  0  0  0
   -2.2780   -1.1629    0.4933 C   0  0  0  0  0  0  0  0  0  0  0  0
   -3.0653   -2.0272    1.2623 C   0  0  0  0  0  0  0  0  0  0  0  0
   -4.4288   -2.1384    0.9948 C   0  0  0  0  0  0  0  0  0  0  0  0
   -4.9994   -1.3841   -0.0305 C   0  0  0  0  0  0  0  0  0  0  0  0
   -4.2079   -0.5207   -0.7938 C   0  0  0  0  0  0  0  0  0  0  0  0
   -2.8358   -0.4167   -0.5488 C   0  0  0  0  0  0  0  0  0  0  0  0
   -2.0419    0.4810   -1.2631 N   0  0  0  0  0  0  0  0  0  0  0  0
    1.4471   -0.0792    0.0835 C   0  0  0  0  0  0  0  0  0  0  0  0
    2.3217   -0.7835   -0.7578 C   0  0  0  0  0  0  0  0  0  0  0  0
    3.7022   -0.7349   -0.5450 C   0  0  0  0  0  0  0  0  0  0  0  0
    4.2094    0.0197    0.5206 C   0  0  0  0  0  0  0  0  0  0  0  0
    3.3463    0.7211    1.3724 C   0  0  0  0  0  0  0  0  0  0  0  0
    1.9673    0.6671    1.1513 C   0  0  0  0  0  0  0  0  0  0  0  0
    5.6589    0.0757    0.7473 N   0  0  0  0  0  4  0  0  0  0  0  0
    6.0711    0.7920    1.6712 O   0  0  0  0  0  0  0  0  0  0  0  0
    6.3868   -0.5916   -0.0017 O   0  0  0  0  0  1  0  0  0  0  0  0
    0.4934    3.9938   -1.8765 H   0  0  0  0  0  0  0  0  0  0  0  0
   -1.0674    3.4462   -1.2328 H   0  0  0  0  0  0  0  0  0  0  0  0
    0.4346    3.1432   -0.3203 H   0  0  0  0  0  0  0  0  0  0  0  0
   -2.6190   -2.6083    2.0662 H   0  0  0  0  0  0  0  0  0  0  0  0
   -5.0463   -2.8078    1.5890 H   0  0  0  0  0  0  0  0  0  0  0  0
   -6.0651   -1.4639   -0.2326 H   0  0  0  0  0  0  0  0  0  0  0  0
   -4.6744    0.0692   -1.5786 H   0  0  0  0  0  0  0  0  0  0  0  0
   -2.3932    0.8575   -2.1355 H   0  0  0  0  0  0  0  0  0  0  0  0
    1.9316   -1.3746   -1.5846 H   0  0  0  0  0  0  0  0  0  0  0  0
    4.3603   -1.2878   -1.2120 H   0  0  0  0  0  0  0  0  0  0  0  0
    3.7257    1.3026    2.2099 H   0  0  0  0  0  0  0  0  0  0  0  0
    1.2991    1.2005    1.8248 H   0  0  0  0  0  0  0  0  0  0  0  0
  1  2  1  0
  2  3  1  0
  3  4  2  0
  4  5  1  0
  5  6  2  0
  5  7  1  0
  7  8  2  0
  8  9  1  0
  9 10  2  0
 10 11  1  0
 11 12  2  0
 12 13  1  0
  4 14  1  0
 14 15  2  0
 15 16  1  0
 16 17  2  0
 17 18  1  0
 18 19  2  0
 17 20  1  0
 20 21  2  0
 20 22  1  0
 13  3  1  0
 12  7  1  0
 19 14  1  0
  1 23  1  0
  1 24  1  0
  1 25  1  0
  8 26  1  0
  9 27  1  0
 10 28  1  0
 11 29  1  0
 13 30  1  0
 15 31  1  0
 16 32  1  0
 18 33  1  0
 19 34  1  0
M  CHG  2  20   1  22  -1
M  END
>  <Unnamed: 0>  (92) 
584

>  <ID>  (92) 
TRAIN_0584

>  <Canonical_Smiles>  (92) 
CSC1=C(C(=O)c2ccccc2N1)c3ccc(cc3)[N+](=O)[O-]

>  <Inhibition>  (92) 
20.3

>  <TDC_conf_true_inhibitor>  (92) 
1

>  <TDC_conf_non_inhibitor>  (92) 
0

>  <split>  (92) 
1

$$$$
92
     RDKit          3D

 61 66  0  0  0  0  0  0  0  0999 V2000
   -0.8757   -0.2659    1.3594 O   0  0  0  0  0  0  0  0  0  0  0  0
   -1.1625    0.6911    0.6497 C   0  0  0  0  0  0  0  0  0  0  0  0
   -2.3934    0.8743    0.0501 N   0  0  0  0  0  0  0  0  0  0  0  0
   -3.5502   -0.0120    0.2150 C   0  0  0  0  0  0  0  0  0  0  0  0
   -3.2642   -1.4411   -0.3109 C   0  0  0  0  0  0  0  0  0  0  0  0
   -4.5152   -2.3286   -0.1708 C   0  0  0  0  0  0  0  0  0  0  0  0
   -5.6668   -1.7211   -0.9882 C   0  0  0  0  0  0  0  0  0  0  0  0
   -5.9861   -0.3082   -0.4740 C   0  0  0  0  0  0  0  0  0  0  0  0
   -6.3927   -0.3846    1.0066 C   0  0  0  0  0  0  0  0  0  0  0  0
   -5.2460   -0.9840    1.8355 C   0  0  0  0  0  0  0  0  0  0  0  0
   -4.9254   -2.3950    1.3106 C   0  0  0  0  0  0  0  0  0  0  0  0
   -3.9974   -0.0945    1.6958 C   0  0  0  0  0  0  0  0  0  0  0  0
   -4.7324    0.5705   -0.6083 C   0  0  0  0  0  0  0  0  0  0  0  0
   -0.1767    1.8178    0.3434 C   0  0  0  0  0  0  0  0  0  0  0  0
    0.2147    1.7922   -1.1429 C   0  0  0  0  0  0  0  0  0  0  0  0
    1.6936    2.1067   -1.3515 C   0  0  0  0  0  0  0  0  0  0  0  0
    2.5050    1.1221   -0.6337 N   0  0  0  0  0  0  0  0  0  0  0  0
    2.1093    0.7875    0.7434 C   0  0  0  0  0  0  0  0  0  0  0  0
    1.0462    1.7515    1.2671 C   0  0  0  0  0  0  0  0  0  0  0  0
    3.8816    1.1818   -0.8907 C   0  0  0  0  0  0  0  0  0  0  0  0
    4.7129    0.1491   -0.4803 C   0  0  0  0  0  0  0  0  0  0  0  0
    6.0616    0.2601   -0.7651 C   0  0  0  0  0  0  0  0  0  0  0  0
    6.5754    1.3264   -1.4143 N   0  0  0  0  0  0  0  0  0  0  0  0
    5.6946    2.2570   -1.7917 C   0  0  0  0  0  0  0  0  0  0  0  0
    4.3744    2.2326   -1.5693 N   0  0  0  0  0  0  0  0  0  0  0  0
    6.9708   -0.7749   -0.3842 N   0  0  0  0  0  0  0  0  0  0  0  0
    8.3372   -0.7393   -0.6045 C   0  0  0  0  0  0  0  0  0  0  0  0
    8.9107   -1.8899   -0.1111 C   0  0  0  0  0  0  0  0  0  0  0  0
    7.8671   -2.6770    0.4187 C   0  0  0  0  0  0  0  0  0  0  0  0
    6.6921   -1.9747    0.2451 C   0  0  0  0  0  0  0  0  0  0  0  0
   -2.5348    1.7298   -0.4735 H   0  0  0  0  0  0  0  0  0  0  0  0
   -2.4357   -1.9038    0.2391 H   0  0  0  0  0  0  0  0  0  0  0  0
   -2.9506   -1.4008   -1.3624 H   0  0  0  0  0  0  0  0  0  0  0  0
   -4.2947   -3.3376   -0.5387 H   0  0  0  0  0  0  0  0  0  0  0  0
   -5.3935   -1.6828   -2.0497 H   0  0  0  0  0  0  0  0  0  0  0  0
   -6.5571   -2.3583   -0.9121 H   0  0  0  0  0  0  0  0  0  0  0  0
   -6.8055    0.1237   -1.0593 H   0  0  0  0  0  0  0  0  0  0  0  0
   -7.2941   -0.9996    1.1180 H   0  0  0  0  0  0  0  0  0  0  0  0
   -6.6423    0.6163    1.3791 H   0  0  0  0  0  0  0  0  0  0  0  0
   -5.5423   -1.0389    2.8891 H   0  0  0  0  0  0  0  0  0  0  0  0
   -4.1169   -2.8431    1.9026 H   0  0  0  0  0  0  0  0  0  0  0  0
   -5.8030   -3.0451    1.4271 H   0  0  0  0  0  0  0  0  0  0  0  0
   -3.1966   -0.5032    2.3243 H   0  0  0  0  0  0  0  0  0  0  0  0
   -4.2085    0.9122    2.0836 H   0  0  0  0  0  0  0  0  0  0  0  0
   -4.9587    1.5913   -0.2714 H   0  0  0  0  0  0  0  0  0  0  0  0
   -4.4490    0.6532   -1.6664 H   0  0  0  0  0  0  0  0  0  0  0  0
   -0.6993    2.7592    0.5634 H   0  0  0  0  0  0  0  0  0  0  0  0
   -0.0058    0.8101   -1.5839 H   0  0  0  0  0  0  0  0  0  0  0  0
   -0.3924    2.5203   -1.6955 H   0  0  0  0  0  0  0  0  0  0  0  0
    1.9139    3.1264   -1.0095 H   0  0  0  0  0  0  0  0  0  0  0  0
    1.9004    2.0621   -2.4280 H   0  0  0  0  0  0  0  0  0  0  0  0
    2.9587    0.8321    1.4351 H   0  0  0  0  0  0  0  0  0  0  0  0
    1.7351   -0.2416    0.7581 H   0  0  0  0  0  0  0  0  0  0  0  0
    1.4839    2.7551    1.3393 H   0  0  0  0  0  0  0  0  0  0  0  0
    0.7598    1.4725    2.2870 H   0  0  0  0  0  0  0  0  0  0  0  0
    4.2880   -0.7079    0.0220 H   0  0  0  0  0  0  0  0  0  0  0  0
    6.0849    3.1140   -2.3287 H   0  0  0  0  0  0  0  0  0  0  0  0
    8.7858    0.1174   -1.0915 H   0  0  0  0  0  0  0  0  0  0  0  0
    9.9652   -2.1324   -0.1385 H   0  0  0  0  0  0  0  0  0  0  0  0
    7.9582   -3.6538    0.8794 H   0  0  0  0  0  0  0  0  0  0  0  0
    5.6842   -2.2599    0.5130 H   0  0  0  0  0  0  0  0  0  0  0  0
  1  2  2  0
  2  3  1  0
  3  4  1  0
  4  5  1  0
  5  6  1  0
  6  7  1  0
  7  8  1  0
  8  9  1  0
  9 10  1  0
 10 11  1  0
 10 12  1  0
  8 13  1  0
  2 14  1  0
 14 15  1  0
 15 16  1  0
 16 17  1  0
 17 18  1  0
 18 19  1  0
 17 20  1  0
 20 21  2  0
 21 22  1  0
 22 23  2  0
 23 24  1  0
 24 25  2  0
 22 26  1  0
 26 27  1  0
 27 28  2  0
 28 29  1  0
 29 30  2  0
 12  4  1  0
 13  4  1  0
 11  6  1  0
 19 14  1  0
 25 20  1  0
 30 26  1  0
  3 31  1  0
  5 32  1  0
  5 33  1  0
  6 34  1  0
  7 35  1  0
  7 36  1  0
  8 37  1  0
  9 38  1  0
  9 39  1  0
 10 40  1  0
 11 41  1  0
 11 42  1  0
 12 43  1  0
 12 44  1  0
 13 45  1  0
 13 46  1  0
 14 47  1  0
 15 48  1  0
 15 49  1  0
 16 50  1  0
 16 51  1  0
 18 52  1  0
 18 53  1  0
 19 54  1  0
 19 55  1  0
 21 56  1  0
 24 57  1  0
 27 58  1  0
 28 59  1  0
 29 60  1  0
 30 61  1  0
M  END
>  <Unnamed: 0>  (93) 
590

>  <ID>  (93) 
TRAIN_0590

>  <Canonical_Smiles>  (93) 
O=C(NC12CC3CC(CC(C3)C1)C2)C4CCN(CC4)c5cc(ncn5)n6cccc6

>  <Inhibition>  (93) 
38.8

>  <TDC_conf_true_inhibitor>  (93) 
1

>  <TDC_conf_non_inhibitor>  (93) 
0

>  <split>  (93) 
1

$$$$
93
     RDKit          3D

 52 56  0  0  0  0  0  0  0  0999 V2000
   -1.3434    5.2775    3.8064 F   0  0  0  0  0  0  0  0  0  0  0  0
   -0.8182    4.1820    3.2392 C   0  0  0  0  0  0  0  0  0  0  0  0
    0.5529    4.1232    3.0254 C   0  0  0  0  0  0  0  0  0  0  0  0
    1.1356    2.9925    2.4357 C   0  0  0  0  0  0  0  0  0  0  0  0
    0.2826    1.9331    2.0785 C   0  0  0  0  0  0  0  0  0  0  0  0
   -1.0938    1.9786    2.2918 C   0  0  0  0  0  0  0  0  0  0  0  0
   -1.6597    3.1274    2.8801 C   0  0  0  0  0  0  0  0  0  0  0  0
   -1.6022    0.7393    1.7858 C   0  0  0  0  0  0  0  0  0  0  0  0
   -0.6014   -0.0387    1.3371 N   0  0  0  0  0  0  0  0  0  0  0  0
    0.5106    0.7055    1.5054 N   0  0  0  0  0  0  0  0  0  0  0  0
    1.7971    0.1170    1.1883 C   0  0  0  0  0  0  0  0  0  0  0  0
    2.0756    0.1006   -0.2874 C   0  0  0  0  0  0  0  0  0  0  0  0
    1.3665    0.5404   -1.1814 O   0  0  0  0  0  0  0  0  0  0  0  0
    3.2907   -0.4874   -0.4908 O   0  0  0  0  0  0  0  0  0  0  0  0
    3.6730   -0.5873   -1.8647 C   0  0  0  0  0  0  0  0  0  0  0  0
    5.1138   -1.0268   -1.8990 C   0  0  0  0  0  0  0  0  0  0  0  0
    6.1428   -0.0793   -1.9916 C   0  0  0  0  0  0  0  0  0  0  0  0
    7.4793   -0.4843   -1.9963 C   0  0  0  0  0  0  0  0  0  0  0  0
    7.8000   -1.8379   -1.8995 C   0  0  0  0  0  0  0  0  0  0  0  0
    6.7847   -2.7880   -1.7949 C   0  0  0  0  0  0  0  0  0  0  0  0
    5.4480   -2.3855   -1.7916 C   0  0  0  0  0  0  0  0  0  0  0  0
   -3.0276    0.3363    1.7749 C   0  0  0  0  0  0  0  0  0  0  0  0
   -3.7622    0.7060    2.6938 O   0  0  0  0  0  0  0  0  0  0  0  0
   -3.4796   -0.4043    0.6820 N   0  0  0  0  0  0  0  0  0  0  0  0
   -2.6896   -0.7802   -0.5063 C   0  0  0  0  0  0  0  0  0  0  0  0
   -3.6538   -1.3585   -1.5470 C   0  0  0  0  0  0  0  0  0  0  0  0
   -4.9607   -1.3051   -0.8332 C   0  0  0  0  0  0  0  0  0  0  0  0
   -6.1970   -1.7017   -1.3206 C   0  0  0  0  0  0  0  0  0  0  0  0
   -7.3121   -1.5605   -0.4962 C   0  0  0  0  0  0  0  0  0  0  0  0
   -7.1769   -1.0270    0.7935 C   0  0  0  0  0  0  0  0  0  0  0  0
   -5.9264   -0.6245    1.2699 C   0  0  0  0  0  0  0  0  0  0  0  0
   -4.8219   -0.7645    0.4460 C   0  0  0  0  0  0  0  0  0  0  0  0
    1.1695    4.9699    3.3215 H   0  0  0  0  0  0  0  0  0  0  0  0
    2.2085    2.9542    2.2724 H   0  0  0  0  0  0  0  0  0  0  0  0
   -2.7275    3.2012    3.0593 H   0  0  0  0  0  0  0  0  0  0  0  0
    2.5750    0.6866    1.6971 H   0  0  0  0  0  0  0  0  0  0  0  0
    1.7889   -0.9053    1.5738 H   0  0  0  0  0  0  0  0  0  0  0  0
    3.0416   -1.3290   -2.3681 H   0  0  0  0  0  0  0  0  0  0  0  0
    3.5604    0.3740   -2.3797 H   0  0  0  0  0  0  0  0  0  0  0  0
    5.9087    0.9818   -2.0581 H   0  0  0  0  0  0  0  0  0  0  0  0
    8.2714    0.2575   -2.0708 H   0  0  0  0  0  0  0  0  0  0  0  0
    8.8411   -2.1516   -1.8995 H   0  0  0  0  0  0  0  0  0  0  0  0
    7.0348   -3.8436   -1.7118 H   0  0  0  0  0  0  0  0  0  0  0  0
    4.6673   -3.1373   -1.7010 H   0  0  0  0  0  0  0  0  0  0  0  0
   -2.1699    0.1018   -0.9007 H   0  0  0  0  0  0  0  0  0  0  0  0
   -1.9457   -1.5292   -0.2178 H   0  0  0  0  0  0  0  0  0  0  0  0
   -3.3879   -2.3886   -1.8076 H   0  0  0  0  0  0  0  0  0  0  0  0
   -3.6690   -0.7428   -2.4493 H   0  0  0  0  0  0  0  0  0  0  0  0
   -6.2998   -2.1118   -2.3201 H   0  0  0  0  0  0  0  0  0  0  0  0
   -8.2907   -1.8695   -0.8538 H   0  0  0  0  0  0  0  0  0  0  0  0
   -8.0578   -0.9203    1.4288 H   0  0  0  0  0  0  0  0  0  0  0  0
   -5.8456   -0.2161    2.2760 H   0  0  0  0  0  0  0  0  0  0  0  0
  1  2  1  0
  2  3  2  0
  3  4  1  0
  4  5  2  0
  5  6  1  0
  6  7  2  0
  6  8  1  0
  8  9  2  0
  9 10  1  0
 10 11  1  0
 11 12  1  0
 12 13  2  0
 12 14  1  0
 14 15  1  0
 15 16  1  0
 16 17  2  0
 17 18  1  0
 18 19  2  0
 19 20  1  0
 20 21  2  0
  8 22  1  0
 22 23  2  0
 22 24  1  0
 24 25  1  0
 25 26  1  0
 26 27  1  0
 27 28  2  0
 28 29  1  0
 29 30  2  0
 30 31  1  0
 31 32  2  0
  7  2  1  0
 10  5  1  0
 21 16  1  0
 32 24  1  0
 32 27  1  0
  3 33  1  0
  4 34  1  0
  7 35  1  0
 11 36  1  0
 11 37  1  0
 15 38  1  0
 15 39  1  0
 17 40  1  0
 18 41  1  0
 19 42  1  0
 20 43  1  0
 21 44  1  0
 25 45  1  0
 25 46  1  0
 26 47  1  0
 26 48  1  0
 28 49  1  0
 29 50  1  0
 30 51  1  0
 31 52  1  0
M  END
>  <Unnamed: 0>  (94) 
602

>  <ID>  (94) 
TRAIN_0602

>  <Canonical_Smiles>  (94) 
Fc1ccc2c(c1)c(nn2CC(=O)OCc3ccccc3)C(=O)N4CCc5ccccc45

>  <Inhibition>  (94) 
26.9

>  <TDC_conf_true_inhibitor>  (94) 
1

>  <TDC_conf_non_inhibitor>  (94) 
0

>  <split>  (94) 
1

$$$$
94
     RDKit          3D

 45 48  0  0  0  0  0  0  0  0999 V2000
   -6.8251    0.3793   -1.1214 C   0  0  0  0  0  0  0  0  0  0  0  0
   -5.6396    0.3330   -0.1816 C   0  0  0  0  0  0  0  0  0  0  0  0
   -5.3529   -1.0386    0.3766 C   0  0  0  0  0  0  0  0  0  0  0  0
   -3.9860   -0.9438    0.7826 O   0  0  0  0  0  0  0  0  0  0  0  0
   -3.3910   -0.0055   -0.1327 C   0  0  0  0  0  0  0  0  0  0  0  0
   -2.4809   -0.7377   -1.1094 C   0  0  0  0  0  0  0  0  0  0  0  0
   -1.2797   -1.3389   -0.3923 C   0  0  0  0  0  0  0  0  0  0  0  0
   -0.5440   -0.2997    0.3517 N   0  0  0  0  0  0  0  0  0  0  0  0
   -1.3958    0.4039    1.3340 C   0  0  0  0  0  0  0  0  0  0  0  0
   -2.6012    1.0337    0.6512 C   0  0  0  0  0  0  0  0  0  0  0  0
    0.8135   -0.4278    0.6501 C   0  0  0  0  0  0  0  0  0  0  0  0
    1.3053    0.0496    1.7501 N   0  0  0  0  0  0  0  0  0  0  0  0
    2.6248   -0.0490    2.0862 C   0  0  0  0  0  0  0  0  0  0  0  0
    3.0075   -0.1468    3.2470 O   0  0  0  0  0  0  0  0  0  0  0  0
    3.6562    0.0600    1.0322 C   0  0  0  0  0  0  0  0  0  0  0  0
    4.9095    0.6170    1.3563 C   0  0  0  0  0  0  0  0  0  0  0  0
    5.9193    0.7337    0.3894 C   0  0  0  0  0  0  0  0  0  0  0  0
    5.6571    0.2649   -0.9035 C   0  0  0  0  0  0  0  0  0  0  0  0
    4.4024   -0.2954   -1.2004 C   0  0  0  0  0  0  0  0  0  0  0  0
    3.3827   -0.4155   -0.2478 C   0  0  0  0  0  0  0  0  0  0  0  0
    1.8339   -1.2196   -0.5506 S   0  0  0  0  0  0  0  0  0  0  0  0
    4.1974   -0.7587   -2.5572 N   0  0  0  0  0  4  0  0  0  0  0  0
    3.4489   -0.0839   -3.2743 O   0  0  0  0  0  0  0  0  0  0  0  0
    4.8262   -1.7670   -2.9014 O   0  0  0  0  0  1  0  0  0  0  0  0
    7.2682    1.3138    0.7498 C   0  0  0  0  0  0  0  0  0  0  0  0
    8.1074    0.3773    1.2645 F   0  0  0  0  0  0  0  0  0  0  0  0
    7.9112    1.8517   -0.3221 F   0  0  0  0  0  0  0  0  0  0  0  0
    7.1866    2.3064    1.6753 F   0  0  0  0  0  0  0  0  0  0  0  0
   -4.4323    0.6503   -0.8789 O   0  0  0  0  0  0  0  0  0  0  0  0
   -6.6794   -0.2935   -1.9736 H   0  0  0  0  0  0  0  0  0  0  0  0
   -6.9424    1.3862   -1.5357 H   0  0  0  0  0  0  0  0  0  0  0  0
   -7.7497    0.1013   -0.6071 H   0  0  0  0  0  0  0  0  0  0  0  0
   -5.7607    1.0656    0.6254 H   0  0  0  0  0  0  0  0  0  0  0  0
   -5.9868   -1.3010    1.2276 H   0  0  0  0  0  0  0  0  0  0  0  0
   -5.4256   -1.8244   -0.3836 H   0  0  0  0  0  0  0  0  0  0  0  0
   -2.1439   -0.0474   -1.8936 H   0  0  0  0  0  0  0  0  0  0  0  0
   -3.0353   -1.5368   -1.6168 H   0  0  0  0  0  0  0  0  0  0  0  0
   -1.5943   -2.1277    0.3022 H   0  0  0  0  0  0  0  0  0  0  0  0
   -0.6648   -1.8217   -1.1565 H   0  0  0  0  0  0  0  0  0  0  0  0
   -1.7078   -0.2959    2.1189 H   0  0  0  0  0  0  0  0  0  0  0  0
   -0.8430    1.2151    1.8223 H   0  0  0  0  0  0  0  0  0  0  0  0
   -3.2395    1.5040    1.4092 H   0  0  0  0  0  0  0  0  0  0  0  0
   -2.2749    1.8370   -0.0221 H   0  0  0  0  0  0  0  0  0  0  0  0
    5.0931    0.9630    2.3761 H   0  0  0  0  0  0  0  0  0  0  0  0
    6.4255    0.3298   -1.6753 H   0  0  0  0  0  0  0  0  0  0  0  0
  1  2  1  0
  2  3  1  0
  3  4  1  0
  4  5  1  0
  5  6  1  0
  6  7  1  0
  7  8  1  0
  8  9  1  0
  9 10  1  0
  8 11  1  0
 11 12  2  0
 12 13  1  0
 13 14  2  0
 13 15  1  0
 15 16  2  0
 16 17  1  0
 17 18  2  0
 18 19  1  0
 19 20  2  0
 20 21  1  0
 19 22  1  0
 22 23  2  0
 22 24  1  0
 17 25  1  0
 25 26  1  0
 25 27  1  0
 25 28  1  0
  5 29  1  0
 29  2  1  0
 10  5  1  0
 21 11  1  0
 20 15  1  0
  1 30  1  0
  1 31  1  0
  1 32  1  0
  2 33  1  0
  3 34  1  0
  3 35  1  0
  6 36  1  0
  6 37  1  0
  7 38  1  0
  7 39  1  0
  9 40  1  0
  9 41  1  0
 10 42  1  0
 10 43  1  0
 16 44  1  0
 18 45  1  0
M  CHG  2  22   1  24  -1
M  END
>  <Unnamed: 0>  (95) 
608

>  <ID>  (95) 
TRAIN_0608

>  <Canonical_Smiles>  (95) 
CC1COC2(CCN(CC2)C3=NC(=O)c4cc(cc(c4S3)[N+](=O)[O-])C(F)(F)F)O1

>  <Inhibition>  (95) 
0.0

>  <TDC_conf_true_inhibitor>  (95) 
0

>  <TDC_conf_non_inhibitor>  (95) 
1

>  <split>  (95) 
1

$$$$
95
     RDKit          3D

 44 44  0  0  0  0  0  0  0  0999 V2000
    1.2192   -0.8807    2.7688 C   0  0  0  0  0  0  0  0  0  0  0  0
    0.0692    0.0370    2.3355 C   0  0  0  0  0  0  0  0  0  0  0  0
   -1.1312   -0.2221    3.2587 C   0  0  0  0  0  0  0  0  0  0  0  0
   -0.3239   -0.1598    0.8443 C   0  0  2  0  0  0  0  0  0  0  0  0
    0.8077    0.0317   -0.0863 N   0  0  0  0  0  0  0  0  0  0  0  0
    1.2588   -1.2248   -0.6780 C   0  0  0  0  0  0  0  0  0  0  0  0
    2.4583   -0.9889   -1.5237 C   0  0  0  0  0  0  0  0  0  0  0  0
    3.6689   -1.2620   -0.9562 O   0  0  0  0  0  0  0  0  0  0  0  0
    4.6206   -0.9792   -1.8888 C   0  0  0  0  0  0  0  0  0  0  0  0
    6.0220   -1.2003   -1.4826 C   0  0  0  0  0  0  0  0  0  0  0  0
    4.0301   -0.5220   -3.0469 C   0  0  0  0  0  0  0  0  0  0  0  0
    2.6346   -0.5264   -2.8111 C   0  0  0  0  0  0  0  0  0  0  0  0
   -1.4142    0.8549    0.4362 C   0  0  0  0  0  0  0  0  0  0  0  0
   -1.4945    2.0031    0.8524 O   0  0  0  0  0  0  0  0  0  0  0  0
   -2.2574    0.2756   -0.4674 O   0  0  0  0  0  0  0  0  0  0  0  0
   -3.3502    1.0299   -1.0488 C   0  0  0  0  0  0  0  0  0  0  0  0
   -2.8358    2.2263   -1.8567 C   0  0  0  0  0  0  0  0  0  0  0  0
   -4.0325    0.0462   -2.0117 C   0  0  0  0  0  0  0  0  0  0  0  0
   -4.3642    1.4513    0.0201 C   0  0  0  0  0  0  0  0  0  0  0  0
    2.1462   -0.6445    2.2373 H   0  0  0  0  0  0  0  0  0  0  0  0
    0.9760   -1.9329    2.5853 H   0  0  0  0  0  0  0  0  0  0  0  0
    1.4258   -0.7659    3.8388 H   0  0  0  0  0  0  0  0  0  0  0  0
    0.3913    1.0752    2.4921 H   0  0  0  0  0  0  0  0  0  0  0  0
   -1.9576    0.4645    3.0513 H   0  0  0  0  0  0  0  0  0  0  0  0
   -1.5041   -1.2456    3.1443 H   0  0  0  0  0  0  0  0  0  0  0  0
   -0.8499   -0.0817    4.3080 H   0  0  0  0  0  0  0  0  0  0  0  0
   -0.7613   -1.1624    0.7377 H   0  0  0  0  0  0  0  0  0  0  0  0
    1.5876    0.4921    0.3813 H   0  0  0  0  0  0  0  0  0  0  0  0
    1.5025   -1.9607    0.0966 H   0  0  0  0  0  0  0  0  0  0  0  0
    0.4633   -1.6508   -1.3007 H   0  0  0  0  0  0  0  0  0  0  0  0
    6.6680   -1.3190   -2.3582 H   0  0  0  0  0  0  0  0  0  0  0  0
    6.1124   -2.1022   -0.8692 H   0  0  0  0  0  0  0  0  0  0  0  0
    6.3864   -0.3487   -0.8993 H   0  0  0  0  0  0  0  0  0  0  0  0
    4.5438   -0.2176   -3.9479 H   0  0  0  0  0  0  0  0  0  0  0  0
    1.8479   -0.2232   -3.4877 H   0  0  0  0  0  0  0  0  0  0  0  0
   -2.0466    1.9161   -2.5508 H   0  0  0  0  0  0  0  0  0  0  0  0
   -2.4032    2.9989   -1.2141 H   0  0  0  0  0  0  0  0  0  0  0  0
   -3.6420    2.6941   -2.4323 H   0  0  0  0  0  0  0  0  0  0  0  0
   -4.3824   -0.8440   -1.4759 H   0  0  0  0  0  0  0  0  0  0  0  0
   -3.3260   -0.3085   -2.7713 H   0  0  0  0  0  0  0  0  0  0  0  0
   -4.8879    0.5021   -2.5210 H   0  0  0  0  0  0  0  0  0  0  0  0
   -4.6562    0.5945    0.6373 H   0  0  0  0  0  0  0  0  0  0  0  0
   -5.2661    1.8777   -0.4325 H   0  0  0  0  0  0  0  0  0  0  0  0
   -3.9535    2.2026    0.7012 H   0  0  0  0  0  0  0  0  0  0  0  0
  1  2  1  0
  2  3  1  0
  2  4  1  0
  4  5  1  0
  5  6  1  0
  6  7  1  0
  7  8  1  0
  8  9  1  0
  9 10  1  0
  9 11  2  0
 11 12  1  0
  4 13  1  0
 13 14  2  0
 13 15  1  0
 15 16  1  0
 16 17  1  0
 16 18  1  0
 16 19  1  0
 12  7  2  0
  1 20  1  0
  1 21  1  0
  1 22  1  0
  2 23  1  0
  3 24  1  0
  3 25  1  0
  3 26  1  0
  4 27  1  1
  5 28  1  0
  6 29  1  0
  6 30  1  0
 10 31  1  0
 10 32  1  0
 10 33  1  0
 11 34  1  0
 12 35  1  0
 17 36  1  0
 17 37  1  0
 17 38  1  0
 18 39  1  0
 18 40  1  0
 18 41  1  0
 19 42  1  0
 19 43  1  0
 19 44  1  0
M  END
>  <Unnamed: 0>  (96) 
612

>  <ID>  (96) 
TRAIN_0612

>  <Canonical_Smiles>  (96) 
CC(C)[C@H](NCc1oc(C)cc1)C(=O)OC(C)(C)C

>  <Inhibition>  (96) 
7.98

>  <TDC_conf_true_inhibitor>  (96) 
0

>  <TDC_conf_non_inhibitor>  (96) 
1

>  <split>  (96) 
1

$$$$
96
     RDKit          3D

 49 52  0  0  0  0  0  0  0  0999 V2000
   -1.9151    0.1416   -3.4547 O   0  0  0  0  0  0  0  0  0  0  0  0
   -1.4890    1.2156   -2.6160 C   0  0  0  0  0  0  0  0  0  0  0  0
   -2.7225    1.9446   -2.0615 C   0  0  0  0  0  0  0  0  0  0  0  0
   -3.4351    1.1721   -0.9430 C   0  0  0  0  0  0  0  0  0  0  0  0
   -2.4277    0.7892    0.1293 C   0  0  1  0  0  0  0  0  0  0  0  0
   -2.9530   -0.0427    1.2967 C   0  0  0  0  0  0  0  0  0  0  0  0
   -1.7212   -0.8418    1.7907 C   0  0  0  0  0  0  0  0  0  0  0  0
   -2.0508   -2.2377    1.7453 O   0  0  0  0  0  0  0  0  0  0  0  0
   -1.8672   -2.7145    3.0799 C   0  0  0  0  0  0  0  0  0  0  0  0
   -1.9981   -1.4829    3.9335 C   0  0  0  0  0  0  0  0  0  0  0  0
   -1.3831   -0.4753    3.1327 O   0  0  0  0  0  0  0  0  0  0  0  0
   -0.5634   -0.4764    0.8320 C   0  0  1  0  0  0  0  0  0  0  0  0
    0.4536   -1.6001    0.6425 C   0  0  0  0  0  0  0  0  0  0  0  0
    1.5536   -1.1720   -0.1601 O   0  0  0  0  0  0  0  0  0  0  0  0
    2.5972   -0.5591    0.5975 C   0  0  0  0  0  0  0  0  0  0  0  0
    3.5851    0.1325   -0.3117 C   0  0  0  0  0  0  0  0  0  0  0  0
    4.3712    1.1818    0.1891 C   0  0  0  0  0  0  0  0  0  0  0  0
    5.3126    1.8175   -0.6233 C   0  0  0  0  0  0  0  0  0  0  0  0
    5.4863    1.4066   -1.9431 C   0  0  0  0  0  0  0  0  0  0  0  0
    4.7222    0.3578   -2.4499 C   0  0  0  0  0  0  0  0  0  0  0  0
    3.7817   -0.2789   -1.6377 C   0  0  0  0  0  0  0  0  0  0  0  0
   -1.3116   -0.0818   -0.4497 C   0  0  2  0  0  0  0  0  0  0  0  0
   -0.5435    0.6898   -1.5215 C   0  0  0  0  0  0  0  0  0  0  0  0
   -2.3765   -0.5155   -2.9089 H   0  0  0  0  0  0  0  0  0  0  0  0
   -0.9328    1.9024   -3.2635 H   0  0  0  0  0  0  0  0  0  0  0  0
   -2.4079    2.9188   -1.6669 H   0  0  0  0  0  0  0  0  0  0  0  0
   -3.4395    2.1344   -2.8688 H   0  0  0  0  0  0  0  0  0  0  0  0
   -3.9174    0.2780   -1.3557 H   0  0  0  0  0  0  0  0  0  0  0  0
   -4.2283    1.7941   -0.5130 H   0  0  0  0  0  0  0  0  0  0  0  0
   -1.9960    1.7140    0.5415 H   0  0  0  0  0  0  0  0  0  0  0  0
   -3.7489   -0.7174    0.9594 H   0  0  0  0  0  0  0  0  0  0  0  0
   -3.3686    0.6084    2.0732 H   0  0  0  0  0  0  0  0  0  0  0  0
   -2.6012   -3.4881    3.3184 H   0  0  0  0  0  0  0  0  0  0  0  0
   -0.8612   -3.1415    3.1478 H   0  0  0  0  0  0  0  0  0  0  0  0
   -1.4970   -1.5704    4.9006 H   0  0  0  0  0  0  0  0  0  0  0  0
   -3.0467   -1.2085    4.0923 H   0  0  0  0  0  0  0  0  0  0  0  0
   -0.0459    0.4131    1.2161 H   0  0  0  0  0  0  0  0  0  0  0  0
    0.8176   -1.9781    1.6053 H   0  0  0  0  0  0  0  0  0  0  0  0
   -0.0079   -2.4429    0.1164 H   0  0  0  0  0  0  0  0  0  0  0  0
    3.1203   -1.3314    1.1728 H   0  0  0  0  0  0  0  0  0  0  0  0
    2.1723    0.1763    1.2895 H   0  0  0  0  0  0  0  0  0  0  0  0
    4.2531    1.5131    1.2183 H   0  0  0  0  0  0  0  0  0  0  0  0
    5.9112    2.6327   -0.2257 H   0  0  0  0  0  0  0  0  0  0  0  0
    6.2176    1.9013   -2.5762 H   0  0  0  0  0  0  0  0  0  0  0  0
    4.8562    0.0328   -3.4782 H   0  0  0  0  0  0  0  0  0  0  0  0
    3.1942   -1.0980   -2.0483 H   0  0  0  0  0  0  0  0  0  0  0  0
   -1.7400   -0.9872   -0.9031 H   0  0  0  0  0  0  0  0  0  0  0  0
    0.2086    0.0378   -1.9780 H   0  0  0  0  0  0  0  0  0  0  0  0
   -0.0173    1.5357   -1.0627 H   0  0  0  0  0  0  0  0  0  0  0  0
  1  2  1  0
  2  3  1  0
  3  4  1  0
  4  5  1  0
  5  6  1  0
  6  7  1  0
  7  8  1  0
  8  9  1  0
  9 10  1  0
 10 11  1  0
  7 12  1  0
 12 13  1  0
 13 14  1  0
 14 15  1  0
 15 16  1  0
 16 17  2  0
 17 18  1  0
 18 19  2  0
 19 20  1  0
 20 21  2  0
 12 22  1  0
 22 23  1  0
 23  2  1  0
 22  5  1  0
 11  7  1  0
 21 16  1  0
  1 24  1  0
  2 25  1  0
  3 26  1  0
  3 27  1  0
  4 28  1  0
  4 29  1  0
  5 30  1  1
  6 31  1  0
  6 32  1  0
  9 33  1  0
  9 34  1  0
 10 35  1  0
 10 36  1  0
 12 37  1  1
 13 38  1  0
 13 39  1  0
 15 40  1  0
 15 41  1  0
 17 42  1  0
 18 43  1  0
 19 44  1  0
 20 45  1  0
 21 46  1  0
 22 47  1  6
 23 48  1  0
 23 49  1  0
M  END
>  <Unnamed: 0>  (97) 
627

>  <ID>  (97) 
TRAIN_0627

>  <Canonical_Smiles>  (97) 
OC1CC[C@H]2CC3(OCCO3)[C@@H](COCc4ccccc4)[C@@H]2C1

>  <Inhibition>  (97) 
5.08

>  <TDC_conf_true_inhibitor>  (97) 
0

>  <TDC_conf_non_inhibitor>  (97) 
1

>  <split>  (97) 
1

$$$$
97
     RDKit          3D

 23 24  0  0  0  0  0  0  0  0999 V2000
   -1.4931    2.3791    0.3224 C   0  0  0  0  0  0  0  0  0  0  0  0
   -0.6906    1.1285    0.0947 C   0  0  0  0  0  0  0  0  0  0  0  0
    0.6396    1.3285   -0.0586 N   0  0  0  0  0  0  0  0  0  0  0  0
    1.4425    0.2662   -0.2318 C   0  0  0  0  0  0  0  0  0  0  0  0
    2.8027    0.4904   -0.3798 C   0  0  0  0  0  0  0  0  0  0  0  0
    3.6934   -0.5622   -0.5580 C   0  0  0  0  0  0  0  0  0  0  0  0
    3.1763   -1.8371   -0.5833 C   0  0  0  0  0  0  0  0  0  0  0  0
    1.8618   -2.1024   -0.4459 N   0  0  0  0  0  0  0  0  0  0  0  0
    0.9945   -1.0647   -0.2695 C   0  0  0  0  0  0  0  0  0  0  0  0
   -0.3949   -1.2298   -0.1185 C   0  0  0  0  0  0  0  0  0  0  0  0
   -1.1351   -3.2447   -0.1218 I   0  0  0  0  0  0  0  0  0  0  0  0
   -1.2775   -0.1390    0.0429 C   0  0  0  0  0  0  0  0  0  0  0  0
   -2.7637   -0.2898    0.2044 C   0  0  0  0  0  0  0  0  0  0  0  0
   -3.0649   -0.4119    1.5848 O   0  0  0  0  0  0  0  0  0  0  0  0
   -2.0853    2.2980    1.2389 H   0  0  0  0  0  0  0  0  0  0  0  0
   -0.8346    3.2475    0.4323 H   0  0  0  0  0  0  0  0  0  0  0  0
   -2.1536    2.5687   -0.5291 H   0  0  0  0  0  0  0  0  0  0  0  0
    3.1747    1.5116   -0.3522 H   0  0  0  0  0  0  0  0  0  0  0  0
    4.7565   -0.3855   -0.6712 H   0  0  0  0  0  0  0  0  0  0  0  0
    3.8153   -2.7050   -0.7176 H   0  0  0  0  0  0  0  0  0  0  0  0
   -3.1610   -1.1512   -0.3382 H   0  0  0  0  0  0  0  0  0  0  0  0
   -3.3032    0.5747   -0.1954 H   0  0  0  0  0  0  0  0  0  0  0  0
   -3.9997   -0.6700    1.6506 H   0  0  0  0  0  0  0  0  0  0  0  0
  1  2  1  0
  2  3  2  0
  3  4  1  0
  4  5  2  0
  5  6  1  0
  6  7  2  0
  7  8  1  0
  8  9  2  0
  9 10  1  0
 10 11  1  0
 10 12  2  0
 12 13  1  0
 13 14  1  0
 12  2  1  0
  9  4  1  0
  1 15  1  0
  1 16  1  0
  1 17  1  0
  5 18  1  0
  6 19  1  0
  7 20  1  0
 13 21  1  0
 13 22  1  0
 14 23  1  0
M  END
>  <Unnamed: 0>  (98) 
629

>  <ID>  (98) 
TRAIN_0629

>  <Canonical_Smiles>  (98) 
Cc1nc2cccnc2c(I)c1CO

>  <Inhibition>  (98) 
9.73

>  <TDC_conf_true_inhibitor>  (98) 
0

>  <TDC_conf_non_inhibitor>  (98) 
1

>  <split>  (98) 
1

$$$$
98
     RDKit          3D

 34 35  0  0  0  0  0  0  0  0999 V2000
    1.0966    3.1271   -0.3203 C   0  0  0  0  0  0  0  0  0  0  0  0
    2.1378    2.0714    0.0011 C   0  0  0  0  0  0  0  0  0  0  0  0
    1.5018    0.8182    0.2918 O   0  0  0  0  0  0  0  0  0  0  0  0
    1.2285    0.0444   -0.7852 C   0  0  0  0  0  0  0  0  0  0  0  0
    1.4869    0.2739   -1.9523 O   0  0  0  0  0  0  0  0  0  0  0  0
    0.6139   -1.2092   -0.3109 C   0  0  0  0  0  0  0  0  0  0  0  0
    1.3435   -2.4067   -0.4730 C   0  0  0  0  0  0  0  0  0  0  0  0
    2.7004   -2.4537   -1.1084 C   0  0  0  0  0  0  0  0  0  0  0  0
    0.7784   -3.6056   -0.0539 N   0  0  0  0  0  4  0  0  0  0  0  0
    1.3817   -4.7173   -0.1741 O   0  0  0  0  0  1  0  0  0  0  0  0
   -0.4839   -3.5909    0.5235 C   0  0  0  0  0  0  0  0  0  0  0  0
   -1.2100   -2.4150    0.6886 C   0  0  0  0  0  0  0  0  0  0  0  0
   -0.6731   -1.1965    0.2647 C   0  0  0  0  0  0  0  0  0  0  0  0
   -1.4772    0.0291    0.4146 C   0  0  0  0  0  0  0  0  0  0  0  0
   -1.5114    0.6803    1.6618 C   0  0  0  0  0  0  0  0  0  0  0  0
   -2.2616    1.8441    1.8471 C   0  0  0  0  0  0  0  0  0  0  0  0
   -2.9935    2.3777    0.7899 C   0  0  0  0  0  0  0  0  0  0  0  0
   -2.9795    1.7461   -0.4526 C   0  0  0  0  0  0  0  0  0  0  0  0
   -2.2310    0.5796   -0.6399 C   0  0  0  0  0  0  0  0  0  0  0  0
   -2.2832   -0.1645   -2.2008 Cl  0  0  0  0  0  0  0  0  0  0  0  0
    0.3925    3.2372    0.5104 H   0  0  0  0  0  0  0  0  0  0  0  0
    0.5102    2.8473   -1.2011 H   0  0  0  0  0  0  0  0  0  0  0  0
    1.5709    4.0944   -0.5083 H   0  0  0  0  0  0  0  0  0  0  0  0
    2.8666    1.9679   -0.8111 H   0  0  0  0  0  0  0  0  0  0  0  0
    2.6945    2.3639    0.8974 H   0  0  0  0  0  0  0  0  0  0  0  0
    2.6101   -2.3087   -2.1895 H   0  0  0  0  0  0  0  0  0  0  0  0
    3.2185   -3.4016   -0.9381 H   0  0  0  0  0  0  0  0  0  0  0  0
    3.3451   -1.6708   -0.6953 H   0  0  0  0  0  0  0  0  0  0  0  0
   -0.8296   -4.5726    0.8133 H   0  0  0  0  0  0  0  0  0  0  0  0
   -2.2021   -2.4625    1.1336 H   0  0  0  0  0  0  0  0  0  0  0  0
   -0.9391    0.2864    2.5004 H   0  0  0  0  0  0  0  0  0  0  0  0
   -2.2703    2.3358    2.8172 H   0  0  0  0  0  0  0  0  0  0  0  0
   -3.5760    3.2848    0.9325 H   0  0  0  0  0  0  0  0  0  0  0  0
   -3.5565    2.1658   -1.2733 H   0  0  0  0  0  0  0  0  0  0  0  0
  1  2  1  0
  2  3  1  0
  3  4  1  0
  4  5  2  0
  4  6  1  0
  6  7  2  0
  7  8  1  0
  7  9  1  0
  9 10  1  0
  9 11  2  0
 11 12  1  0
 12 13  2  0
 13 14  1  0
 14 15  2  0
 15 16  1  0
 16 17  2  0
 17 18  1  0
 18 19  2  0
 19 20  1  0
 13  6  1  0
 19 14  1  0
  1 21  1  0
  1 22  1  0
  1 23  1  0
  2 24  1  0
  2 25  1  0
  8 26  1  0
  8 27  1  0
  8 28  1  0
 11 29  1  0
 12 30  1  0
 15 31  1  0
 16 32  1  0
 17 33  1  0
 18 34  1  0
M  CHG  2   9   1  10  -1
M  END
>  <Unnamed: 0>  (99) 
635

>  <ID>  (99) 
TRAIN_0635

>  <Canonical_Smiles>  (99) 
CCOC(=O)c1c(C)[n+]([O-])ccc1c2ccccc2Cl

>  <Inhibition>  (99) 
27.9

>  <TDC_conf_true_inhibitor>  (99) 
1

>  <TDC_conf_non_inhibitor>  (99) 
0

>  <split>  (99) 
1

$$$$
99
     RDKit          3D

 35 37  0  0  0  0  0  0  0  0999 V2000
   -2.0500    2.9258   -1.0599 C   0  0  0  0  0  0  0  0  0  0  0  0
   -1.5272    1.6866   -0.4977 N   0  0  0  0  0  0  0  0  0  0  0  0
   -0.1581    1.5709   -0.5254 N   0  0  0  0  0  0  0  0  0  0  0  0
    0.3447    0.4488   -0.1006 C   0  0  0  0  0  0  0  0  0  0  0  0
   -0.4583   -0.6872    0.4288 C   0  0  0  0  0  0  0  0  0  0  0  0
   -1.7911   -0.5707    0.4202 C   0  0  0  0  0  0  0  0  0  0  0  0
   -2.6611   -1.6375    0.9203 C   0  0  0  0  0  0  0  0  0  0  0  0
   -2.1947   -2.6990    1.3271 O   0  0  0  0  0  0  0  0  0  0  0  0
   -4.0047   -1.3367    0.8650 N   0  0  0  0  0  0  0  0  0  0  0  0
   -4.9517   -2.3416    1.3076 C   0  0  0  0  0  0  0  0  0  0  0  0
   -4.5223   -0.1986    0.2500 C   0  0  0  0  0  0  0  0  0  0  0  0
   -5.7326   -0.0892    0.0612 O   0  0  0  0  0  0  0  0  0  0  0  0
   -3.6788    0.8021   -0.1519 N   0  0  0  0  0  0  0  0  0  0  0  0
   -2.3893    0.6720   -0.0917 C   0  0  0  0  0  0  0  0  0  0  0  0
    1.8259    0.2733   -0.1126 C   0  0  0  0  0  0  0  0  0  0  0  0
    2.6353    1.3904    0.1257 C   0  0  0  0  0  0  0  0  0  0  0  0
    4.0269    1.2673    0.1200 C   0  0  0  0  0  0  0  0  0  0  0  0
    4.6275    0.0269   -0.1234 C   0  0  0  0  0  0  0  0  0  0  0  0
    6.1224   -0.0972   -0.1650 C   0  0  0  0  0  0  0  0  0  0  0  0
    3.8164   -1.0820   -0.3925 C   0  0  0  0  0  0  0  0  0  0  0  0
    2.4232   -0.9625   -0.3869 C   0  0  0  0  0  0  0  0  0  0  0  0
   -1.2534    3.6622   -1.2142 H   0  0  0  0  0  0  0  0  0  0  0  0
   -2.5246    2.7325   -2.0273 H   0  0  0  0  0  0  0  0  0  0  0  0
   -2.7869    3.3756   -0.3862 H   0  0  0  0  0  0  0  0  0  0  0  0
    0.0355   -1.5646    0.8264 H   0  0  0  0  0  0  0  0  0  0  0  0
   -4.4935   -3.0476    2.0059 H   0  0  0  0  0  0  0  0  0  0  0  0
   -5.8064   -1.8659    1.7989 H   0  0  0  0  0  0  0  0  0  0  0  0
   -5.3104   -2.8897    0.4304 H   0  0  0  0  0  0  0  0  0  0  0  0
    2.1875    2.3632    0.3185 H   0  0  0  0  0  0  0  0  0  0  0  0
    4.6383    2.1482    0.3045 H   0  0  0  0  0  0  0  0  0  0  0  0
    6.4853    0.0914   -1.1800 H   0  0  0  0  0  0  0  0  0  0  0  0
    6.5927    0.6178    0.5183 H   0  0  0  0  0  0  0  0  0  0  0  0
    6.4396   -1.0986    0.1446 H   0  0  0  0  0  0  0  0  0  0  0  0
    4.2664   -2.0474   -0.6164 H   0  0  0  0  0  0  0  0  0  0  0  0
    1.8276   -1.8390   -0.6255 H   0  0  0  0  0  0  0  0  0  0  0  0
  1  2  1  0
  2  3  1  0
  3  4  2  0
  4  5  1  0
  5  6  2  0
  6  7  1  0
  7  8  2  0
  7  9  1  0
  9 10  1  0
  9 11  1  0
 11 12  2  0
 11 13  1  0
 13 14  2  0
  4 15  1  0
 15 16  2  0
 16 17  1  0
 17 18  2  0
 18 19  1  0
 18 20  1  0
 20 21  2  0
 14  2  1  0
 14  6  1  0
 21 15  1  0
  1 22  1  0
  1 23  1  0
  1 24  1  0
  5 25  1  0
 10 26  1  0
 10 27  1  0
 10 28  1  0
 16 29  1  0
 17 30  1  0
 19 31  1  0
 19 32  1  0
 19 33  1  0
 20 34  1  0
 21 35  1  0
M  END
>  <Unnamed: 0>  (100) 
639

>  <ID>  (100) 
TRAIN_0639

>  <Canonical_Smiles>  (100) 
CN1N=C(C=C2C(=O)N(C)C(=O)N=C12)c3ccc(C)cc3

>  <Inhibition>  (100) 
2.98

>  <TDC_conf_true_inhibitor>  (100) 
0

>  <TDC_conf_non_inhibitor>  (100) 
1

>  <split>  (100) 
1

$$$$
100
     RDKit          3D

 62 65  0  0  0  0  0  0  0  0999 V2000
   -6.3196   -1.7106   -2.1408 C   0  0  0  0  0  0  0  0  0  0  0  0
   -5.9137   -1.2415   -0.8537 O   0  0  0  0  0  0  0  0  0  0  0  0
   -4.6552   -1.6426   -0.4881 C   0  0  0  0  0  0  0  0  0  0  0  0
   -3.9362   -2.3770   -1.1526 O   0  0  0  0  0  0  0  0  0  0  0  0
   -4.3297   -1.0811    0.9090 C   0  0  0  0  0  0  0  0  0  0  0  0
   -5.0714    0.0751    1.2891 O   0  0  0  0  0  0  0  0  0  0  0  0
   -2.8510   -0.8043    1.1242 C   0  0  0  0  0  0  0  0  0  0  0  0
   -2.2048   -1.5698    2.0855 C   0  0  0  0  0  0  0  0  0  0  0  0
   -0.9233   -1.4155    2.4341 N   0  0  0  0  0  0  0  0  0  0  0  0
   -0.2125   -0.4473    1.8049 C   0  0  0  0  0  0  0  0  0  0  0  0
    1.1885   -0.2922    2.3492 C   0  0  0  0  0  0  0  0  0  0  0  0
    1.5256   -0.8491    3.3918 O   0  0  0  0  0  0  0  0  0  0  0  0
    2.0593    0.5141    1.6256 N   0  0  0  0  0  0  0  0  0  0  0  0
    3.4650    0.5758    2.0154 C   0  0  0  0  0  0  0  0  0  0  0  0
    4.3387   -0.3590    1.2111 C   0  0  0  0  0  0  0  0  0  0  0  0
    5.2188    0.1379    0.2400 C   0  0  0  0  0  0  0  0  0  0  0  0
    6.0198   -0.7304   -0.5112 C   0  0  0  0  0  0  0  0  0  0  0  0
    5.9503   -2.1080   -0.3018 C   0  0  0  0  0  0  0  0  0  0  0  0
    6.6724   -3.0592   -0.9681 O   0  0  0  0  0  0  0  0  0  0  0  0
    7.7044   -2.5936   -1.8274 C   0  0  0  0  0  0  0  0  0  0  0  0
    5.0714   -2.6068    0.6614 C   0  0  0  0  0  0  0  0  0  0  0  0
    4.2742   -1.7426    1.4153 C   0  0  0  0  0  0  0  0  0  0  0  0
    1.6927    0.9209    0.2873 C   0  0  0  0  0  0  0  0  0  0  0  0
    0.2329    1.4405    0.1904 C   0  0  0  0  0  0  0  0  0  0  0  0
    0.0972    2.7434    1.0092 C   0  0  0  0  0  0  0  0  0  0  0  0
    0.0548    1.7857   -1.3032 C   0  0  0  0  0  0  0  0  0  0  0  0
   -0.7195    0.3795    0.7779 C   0  0  0  0  0  0  0  0  0  0  0  0
   -2.0960    0.1947    0.4397 C   0  0  0  0  0  0  0  0  0  0  0  0
   -2.7899    1.0202   -0.5671 C   0  0  0  0  0  0  0  0  0  0  0  0
   -2.8818    0.6003   -1.9063 C   0  0  0  0  0  0  0  0  0  0  0  0
   -3.5755    1.3611   -2.8514 C   0  0  0  0  0  0  0  0  0  0  0  0
   -4.1911    2.5484   -2.4645 C   0  0  0  0  0  0  0  0  0  0  0  0
   -5.0539    3.4802   -3.6243 Cl  0  0  0  0  0  0  0  0  0  0  0  0
   -4.1187    2.9812   -1.1432 C   0  0  0  0  0  0  0  0  0  0  0  0
   -3.4232    2.2191   -0.2002 C   0  0  0  0  0  0  0  0  0  0  0  0
   -6.3658   -2.8038   -2.1525 H   0  0  0  0  0  0  0  0  0  0  0  0
   -5.6400   -1.3426   -2.9159 H   0  0  0  0  0  0  0  0  0  0  0  0
   -7.3203   -1.3197   -2.3430 H   0  0  0  0  0  0  0  0  0  0  0  0
   -4.6584   -1.8706    1.5971 H   0  0  0  0  0  0  0  0  0  0  0  0
   -5.9479   -0.0182    0.8701 H   0  0  0  0  0  0  0  0  0  0  0  0
   -2.7206   -2.3491    2.6419 H   0  0  0  0  0  0  0  0  0  0  0  0
    3.7946    1.6145    1.8901 H   0  0  0  0  0  0  0  0  0  0  0  0
    3.5807    0.3459    3.0811 H   0  0  0  0  0  0  0  0  0  0  0  0
    5.2904    1.2084    0.0605 H   0  0  0  0  0  0  0  0  0  0  0  0
    6.6823   -0.2990   -1.2539 H   0  0  0  0  0  0  0  0  0  0  0  0
    8.4309   -1.9812   -1.2801 H   0  0  0  0  0  0  0  0  0  0  0  0
    8.2333   -3.4685   -2.2182 H   0  0  0  0  0  0  0  0  0  0  0  0
    7.2887   -2.0461   -2.6806 H   0  0  0  0  0  0  0  0  0  0  0  0
    5.0090   -3.6788    0.8327 H   0  0  0  0  0  0  0  0  0  0  0  0
    3.6014   -2.1556    2.1658 H   0  0  0  0  0  0  0  0  0  0  0  0
    1.8335    0.0502   -0.3677 H   0  0  0  0  0  0  0  0  0  0  0  0
    2.3916    1.7028   -0.0365 H   0  0  0  0  0  0  0  0  0  0  0  0
   -0.8996    3.1826    0.9019 H   0  0  0  0  0  0  0  0  0  0  0  0
    0.2601    2.5781    2.0802 H   0  0  0  0  0  0  0  0  0  0  0  0
    0.8227    3.4951    0.6767 H   0  0  0  0  0  0  0  0  0  0  0  0
   -0.8112    2.4246   -1.4872 H   0  0  0  0  0  0  0  0  0  0  0  0
   -0.0236    0.8821   -1.9166 H   0  0  0  0  0  0  0  0  0  0  0  0
    0.9122    2.3574   -1.6806 H   0  0  0  0  0  0  0  0  0  0  0  0
   -2.4096   -0.3305   -2.2199 H   0  0  0  0  0  0  0  0  0  0  0  0
   -3.6314    1.0194   -3.8816 H   0  0  0  0  0  0  0  0  0  0  0  0
   -4.6062    3.9025   -0.8361 H   0  0  0  0  0  0  0  0  0  0  0  0
   -3.3957    2.5528    0.8361 H   0  0  0  0  0  0  0  0  0  0  0  0
  1  2  1  0
  2  3  1  0
  3  4  2  0
  3  5  1  0
  5  6  1  0
  5  7  1  0
  7  8  2  0
  8  9  1  0
  9 10  2  0
 10 11  1  0
 11 12  2  0
 11 13  1  0
 13 14  1  0
 14 15  1  0
 15 16  2  0
 16 17  1  0
 17 18  2  0
 18 19  1  0
 19 20  1  0
 18 21  1  0
 21 22  2  0
 13 23  1  0
 23 24  1  0
 24 25  1  0
 24 26  1  0
 24 27  1  0
 27 28  2  0
 28 29  1  0
 29 30  2  0
 30 31  1  0
 31 32  2  0
 32 33  1  0
 32 34  1  0
 34 35  2  0
 28  7  1  0
 27 10  1  0
 22 15  1  0
 35 29  1  0
  1 36  1  0
  1 37  1  0
  1 38  1  0
  5 39  1  0
  6 40  1  0
  8 41  1  0
 14 42  1  0
 14 43  1  0
 16 44  1  0
 17 45  1  0
 20 46  1  0
 20 47  1  0
 20 48  1  0
 21 49  1  0
 22 50  1  0
 23 51  1  0
 23 52  1  0
 25 53  1  0
 25 54  1  0
 25 55  1  0
 26 56  1  0
 26 57  1  0
 26 58  1  0
 30 59  1  0
 31 60  1  0
 34 61  1  0
 35 62  1  0
M  END
>  <Unnamed: 0>  (101) 
641

>  <ID>  (101) 
TRAIN_0641

>  <Canonical_Smiles>  (101) 
COC(=O)C(O)c1cnc2C(=O)N(Cc3ccc(OC)cc3)CC(C)(C)c2c1c4ccc(Cl)cc4

>  <Inhibition>  (101) 
27.6

>  <TDC_conf_true_inhibitor>  (101) 
0

>  <TDC_conf_non_inhibitor>  (101) 
1

>  <split>  (101) 
1

$$$$
101
     RDKit          3D

 46 49  0  0  0  0  0  0  0  0999 V2000
   -2.5220    4.8042   -1.9049 C   0  0  0  0  0  0  0  0  0  0  0  0
   -2.2889    3.4806   -1.2445 C   0  0  0  0  0  0  0  0  0  0  0  0
   -2.6885    2.2883   -1.8542 C   0  0  0  0  0  0  0  0  0  0  0  0
   -2.4915    1.0607   -1.2099 C   0  0  0  0  0  0  0  0  0  0  0  0
   -1.9113    0.9934    0.0705 C   0  0  0  0  0  0  0  0  0  0  0  0
   -1.5150    2.2009    0.6721 C   0  0  0  0  0  0  0  0  0  0  0  0
   -1.7118    3.4178    0.0238 C   0  0  0  0  0  0  0  0  0  0  0  0
   -1.3298    4.5471    0.6379 F   0  0  0  0  0  0  0  0  0  0  0  0
   -1.6267   -0.3111    0.8095 C   0  0  0  0  0  0  0  0  0  0  0  0
   -0.3524   -0.9239    0.3387 N   0  0  0  0  0  0  0  0  0  0  0  0
   -0.4070   -1.8609   -0.8128 C   0  0  0  0  0  0  0  0  0  0  0  0
   -1.4167   -3.0181   -0.6192 C   0  0  0  0  0  0  0  0  0  0  0  0
   -2.6678   -2.4655   -0.0648 C   0  0  0  0  0  0  0  0  0  0  0  0
   -3.9089   -3.0265   -0.0349 N   0  0  0  0  0  0  0  0  0  0  0  0
   -4.7239   -2.1415    0.6207 C   0  0  0  0  0  0  0  0  0  0  0  0
   -4.0711   -1.0662    1.0069 N   0  0  0  0  0  0  0  0  0  0  0  0
   -2.7781   -1.2528    0.5796 C   0  0  0  0  0  0  0  0  0  0  0  0
    0.8038   -0.5180    0.9957 C   0  0  0  0  0  0  0  0  0  0  0  0
    0.7584    0.0901    2.0620 O   0  0  0  0  0  0  0  0  0  0  0  0
    1.9748   -0.8355    0.3432 N   0  0  0  0  0  0  0  0  0  0  0  0
    3.2848   -0.7276    0.8545 C   0  0  0  0  0  0  0  0  0  0  0  0
    4.3431   -0.7979   -0.0602 C   0  0  0  0  0  0  0  0  0  0  0  0
    5.6699   -0.7144    0.3765 C   0  0  0  0  0  0  0  0  0  0  0  0
    5.9522   -0.5678    1.7369 C   0  0  0  0  0  0  0  0  0  0  0  0
    4.9012   -0.5095    2.6547 C   0  0  0  0  0  0  0  0  0  0  0  0
    3.5747   -0.5935    2.2145 C   0  0  0  0  0  0  0  0  0  0  0  0
    7.3108   -0.4840    2.1867 C   0  0  0  0  0  0  0  0  0  0  0  0
    8.4137   -0.4213    2.5429 N   0  0  0  0  0  0  0  0  0  0  0  0
   -1.6706    5.4738   -1.7431 H   0  0  0  0  0  0  0  0  0  0  0  0
   -3.4257    5.2710   -1.5011 H   0  0  0  0  0  0  0  0  0  0  0  0
   -2.6428    4.6896   -2.9874 H   0  0  0  0  0  0  0  0  0  0  0  0
   -3.1605    2.3034   -2.8340 H   0  0  0  0  0  0  0  0  0  0  0  0
   -2.8159    0.1551   -1.7177 H   0  0  0  0  0  0  0  0  0  0  0  0
   -1.0443    2.2047    1.6530 H   0  0  0  0  0  0  0  0  0  0  0  0
   -1.5732   -0.1206    1.8886 H   0  0  0  0  0  0  0  0  0  0  0  0
   -0.6749   -1.2663   -1.6938 H   0  0  0  0  0  0  0  0  0  0  0  0
    0.5710   -2.3081   -1.0094 H   0  0  0  0  0  0  0  0  0  0  0  0
   -1.0038   -3.7464    0.0887 H   0  0  0  0  0  0  0  0  0  0  0  0
   -1.5880   -3.5294   -1.5719 H   0  0  0  0  0  0  0  0  0  0  0  0
   -4.1866   -3.9262   -0.4035 H   0  0  0  0  0  0  0  0  0  0  0  0
   -5.7746   -2.3376    0.7897 H   0  0  0  0  0  0  0  0  0  0  0  0
    1.9002   -0.8774   -0.6606 H   0  0  0  0  0  0  0  0  0  0  0  0
    4.1523   -0.9109   -1.1245 H   0  0  0  0  0  0  0  0  0  0  0  0
    6.4769   -0.7640   -0.3522 H   0  0  0  0  0  0  0  0  0  0  0  0
    5.0993   -0.3996    3.7196 H   0  0  0  0  0  0  0  0  0  0  0  0
    2.7855   -0.5583    2.9610 H   0  0  0  0  0  0  0  0  0  0  0  0
  1  2  1  0
  2  3  2  0
  3  4  1  0
  4  5  2  0
  5  6  1  0
  6  7  2  0
  7  8  1  0
  5  9  1  0
  9 10  1  0
 10 11  1  0
 11 12  1  0
 12 13  1  0
 13 14  1  0
 14 15  1  0
 15 16  2  0
 16 17  1  0
 10 18  1  0
 18 19  2  0
 18 20  1  0
 20 21  1  0
 21 22  2  0
 22 23  1  0
 23 24  2  0
 24 25  1  0
 25 26  2  0
 24 27  1  0
 27 28  3  0
  7  2  1  0
 17  9  1  0
 17 13  2  0
 26 21  1  0
  1 29  1  0
  1 30  1  0
  1 31  1  0
  3 32  1  0
  4 33  1  0
  6 34  1  0
  9 35  1  0
 11 36  1  0
 11 37  1  0
 12 38  1  0
 12 39  1  0
 14 40  1  0
 15 41  1  0
 20 42  1  0
 22 43  1  0
 23 44  1  0
 25 45  1  0
 26 46  1  0
M  END
>  <Unnamed: 0>  (102) 
648

>  <ID>  (102) 
TRAIN_0648

>  <Canonical_Smiles>  (102) 
Cc1ccc(cc1F)C2N(CCc3[nH]cnc23)C(=O)Nc4ccc(cc4)C#N

>  <Inhibition>  (102) 
74.8

>  <TDC_conf_true_inhibitor>  (102) 
1

>  <TDC_conf_non_inhibitor>  (102) 
0

>  <split>  (102) 
1

$$$$
102
     RDKit          3D

 53 55  0  0  0  0  0  0  0  0999 V2000
    6.7786    1.0730    0.0129 C   0  0  0  0  0  0  0  0  0  0  0  0
    6.2319   -0.3588   -0.0071 C   0  0  0  0  0  0  0  0  0  0  0  0
    6.5364   -1.1072    1.2955 C   0  0  0  0  0  0  0  0  0  0  0  0
    6.8872   -1.1169   -1.1720 C   0  0  0  0  0  0  0  0  0  0  0  0
    4.8129   -0.3780   -0.3082 O   0  0  0  0  0  0  0  0  0  0  0  0
    3.9229    0.2066    0.5260 C   0  0  0  0  0  0  0  0  0  0  0  0
    4.1847    0.7943    1.5619 O   0  0  0  0  0  0  0  0  0  0  0  0
    2.6749    0.0428    0.0060 N   0  0  0  0  0  0  0  0  0  0  0  0
    1.5270    0.7511    0.5303 C   0  0  0  0  0  0  0  0  0  0  0  0
    0.2147    0.0270    0.2344 C   0  0  0  0  0  0  0  0  0  0  0  0
   -0.8684    0.8350    0.6924 O   0  0  0  0  0  0  0  0  0  0  0  0
   -2.1796    0.5252    0.1711 C   0  0  0  0  0  0  0  0  0  0  0  0
   -2.3143    1.1217   -1.2631 C   0  0  0  0  0  0  0  0  0  0  0  0
   -1.4094    1.1180   -2.1022 O   0  0  0  0  0  0  0  0  0  0  0  0
   -3.5383    1.6062   -1.6456 N   0  0  0  0  0  0  0  0  0  0  0  0
   -4.6208    1.7890   -0.7872 C   0  0  0  0  0  0  0  0  0  0  0  0
   -5.8445    2.2032   -1.3166 C   0  0  0  0  0  0  0  0  0  0  0  0
   -6.9309    2.4262   -0.4670 C   0  0  0  0  0  0  0  0  0  0  0  0
   -6.7927    2.2502    0.9100 C   0  0  0  0  0  0  0  0  0  0  0  0
   -5.5666    1.8502    1.4409 C   0  0  0  0  0  0  0  0  0  0  0  0
   -4.4840    1.6138    0.5866 C   0  0  0  0  0  0  0  0  0  0  0  0
   -3.1682    1.2307    1.1336 C   0  0  0  0  0  0  0  0  0  0  0  0
   -2.9552    1.4343    2.3301 O   0  0  0  0  0  0  0  0  0  0  0  0
   -2.4708   -0.9954    0.2211 C   0  0  0  0  0  0  0  0  0  0  0  0
   -2.7141   -1.7621   -0.9324 C   0  0  0  0  0  0  0  0  0  0  0  0
   -2.9746   -3.1327   -0.8414 C   0  0  0  0  0  0  0  0  0  0  0  0
   -2.9912   -3.7641    0.3991 C   0  0  0  0  0  0  0  0  0  0  0  0
   -2.7407   -3.0287    1.5527 C   0  0  0  0  0  0  0  0  0  0  0  0
   -2.4800   -1.6602    1.4650 C   0  0  0  0  0  0  0  0  0  0  0  0
    7.8722    1.0810    0.0738 H   0  0  0  0  0  0  0  0  0  0  0  0
    6.3999    1.6438    0.8661 H   0  0  0  0  0  0  0  0  0  0  0  0
    6.4756    1.6174   -0.8886 H   0  0  0  0  0  0  0  0  0  0  0  0
    7.6148   -1.2367    1.4377 H   0  0  0  0  0  0  0  0  0  0  0  0
    6.0637   -2.0958    1.2955 H   0  0  0  0  0  0  0  0  0  0  0  0
    6.1529   -0.5761    2.1718 H   0  0  0  0  0  0  0  0  0  0  0  0
    7.9752   -1.1725   -1.0609 H   0  0  0  0  0  0  0  0  0  0  0  0
    6.6613   -0.6317   -2.1288 H   0  0  0  0  0  0  0  0  0  0  0  0
    6.4939   -2.1377   -1.2429 H   0  0  0  0  0  0  0  0  0  0  0  0
    2.6651   -0.2867   -0.9492 H   0  0  0  0  0  0  0  0  0  0  0  0
    1.5193    1.7490    0.0764 H   0  0  0  0  0  0  0  0  0  0  0  0
    1.6402    0.9024    1.6101 H   0  0  0  0  0  0  0  0  0  0  0  0
    0.1439   -0.1791   -0.8374 H   0  0  0  0  0  0  0  0  0  0  0  0
    0.2102   -0.9314    0.7647 H   0  0  0  0  0  0  0  0  0  0  0  0
   -3.6076    1.8885   -2.6166 H   0  0  0  0  0  0  0  0  0  0  0  0
   -5.9704    2.3556   -2.3855 H   0  0  0  0  0  0  0  0  0  0  0  0
   -7.8862    2.7453   -0.8784 H   0  0  0  0  0  0  0  0  0  0  0  0
   -7.6370    2.4328    1.5712 H   0  0  0  0  0  0  0  0  0  0  0  0
   -5.4558    1.7286    2.5168 H   0  0  0  0  0  0  0  0  0  0  0  0
   -2.6964   -1.3208   -1.9265 H   0  0  0  0  0  0  0  0  0  0  0  0
   -3.1594   -3.7104   -1.7440 H   0  0  0  0  0  0  0  0  0  0  0  0
   -3.1911   -4.8303    0.4661 H   0  0  0  0  0  0  0  0  0  0  0  0
   -2.7417   -3.5185    2.5233 H   0  0  0  0  0  0  0  0  0  0  0  0
   -2.2695   -1.1108    2.3835 H   0  0  0  0  0  0  0  0  0  0  0  0
  1  2  1  0
  2  3  1  0
  2  4  1  0
  2  5  1  0
  5  6  1  0
  6  7  2  0
  6  8  1  0
  8  9  1  0
  9 10  1  0
 10 11  1  0
 11 12  1  0
 12 13  1  0
 13 14  2  0
 13 15  1  0
 15 16  1  0
 16 17  2  0
 17 18  1  0
 18 19  2  0
 19 20  1  0
 20 21  2  0
 21 22  1  0
 22 23  2  0
 12 24  1  0
 24 25  2  0
 25 26  1  0
 26 27  2  0
 27 28  1  0
 28 29  2  0
 22 12  1  0
 21 16  1  0
 29 24  1  0
  1 30  1  0
  1 31  1  0
  1 32  1  0
  3 33  1  0
  3 34  1  0
  3 35  1  0
  4 36  1  0
  4 37  1  0
  4 38  1  0
  8 39  1  0
  9 40  1  0
  9 41  1  0
 10 42  1  0
 10 43  1  0
 15 44  1  0
 17 45  1  0
 18 46  1  0
 19 47  1  0
 20 48  1  0
 25 49  1  0
 26 50  1  0
 27 51  1  0
 28 52  1  0
 29 53  1  0
M  END
>  <Unnamed: 0>  (103) 
676

>  <ID>  (103) 
TRAIN_0676

>  <Canonical_Smiles>  (103) 
CC(C)(C)OC(=O)NCCOC1(C(=O)Nc2ccccc2C1=O)c3ccccc3

>  <Inhibition>  (103) 
23.4

>  <TDC_conf_true_inhibitor>  (103) 
1

>  <TDC_conf_non_inhibitor>  (103) 
0

>  <split>  (103) 
1

$$$$
103
     RDKit          3D

 30 31  0  0  0  0  0  0  0  0999 V2000
    2.8495   -1.4925   -1.5297 C   0  0  0  0  0  0  0  0  0  0  0  0
    2.5700   -0.5232   -0.4101 C   0  0  0  0  0  0  0  0  0  0  0  0
    3.6161    0.3104    0.0245 C   0  0  0  0  0  0  0  0  0  0  0  0
    3.4154    1.2034    1.0681 C   0  0  0  0  0  0  0  0  0  0  0  0
    4.4372    1.9784    1.4602 F   0  0  0  0  0  0  0  0  0  0  0  0
    2.1810    1.2759    1.6954 C   0  0  0  0  0  0  0  0  0  0  0  0
    1.9013    2.4716    3.1349 Br  0  0  0  0  0  0  0  0  0  0  0  0
    1.1320    0.4567    1.2688 C   0  0  0  0  0  0  0  0  0  0  0  0
    1.2901   -0.4316    0.1910 C   0  0  0  0  0  0  0  0  0  0  0  0
    0.2766   -1.3047   -0.2170 N   0  0  0  0  0  0  0  0  0  0  0  0
   -1.1128   -1.1451    0.1919 C   0  0  0  0  0  0  0  0  0  0  0  0
   -1.8472   -0.0033   -0.4196 C   0  0  0  0  0  0  0  0  0  0  0  0
   -1.5248    0.8551   -1.4524 C   0  0  0  0  0  0  0  0  0  0  0  0
   -2.5308    1.7555   -1.6843 N   0  0  0  0  0  0  0  0  0  0  0  0
   -3.4596    1.4692   -0.8026 C   0  0  0  0  0  0  0  0  0  0  0  0
   -3.0945    0.4147   -0.0159 N   0  0  0  0  0  0  0  0  0  0  0  0
   -3.8950   -0.1447    1.0455 C   0  0  0  0  0  0  0  0  0  0  0  0
    3.9113   -1.5025   -1.7984 H   0  0  0  0  0  0  0  0  0  0  0  0
    2.2825   -1.2109   -2.4227 H   0  0  0  0  0  0  0  0  0  0  0  0
    2.5824   -2.5112   -1.2303 H   0  0  0  0  0  0  0  0  0  0  0  0
    4.5980    0.2653   -0.4384 H   0  0  0  0  0  0  0  0  0  0  0  0
    0.1816    0.5348    1.7862 H   0  0  0  0  0  0  0  0  0  0  0  0
    0.3496   -1.5569   -1.1981 H   0  0  0  0  0  0  0  0  0  0  0  0
   -1.1836   -1.1142    1.2855 H   0  0  0  0  0  0  0  0  0  0  0  0
   -1.6353   -2.0647   -0.1020 H   0  0  0  0  0  0  0  0  0  0  0  0
   -0.6165    0.8709   -2.0414 H   0  0  0  0  0  0  0  0  0  0  0  0
   -4.4026    1.9898   -0.6952 H   0  0  0  0  0  0  0  0  0  0  0  0
   -4.8746    0.3398    1.0610 H   0  0  0  0  0  0  0  0  0  0  0  0
   -4.0175   -1.2152    0.8631 H   0  0  0  0  0  0  0  0  0  0  0  0
   -3.3800    0.0291    1.9936 H   0  0  0  0  0  0  0  0  0  0  0  0
  1  2  1  0
  2  3  2  0
  3  4  1  0
  4  5  1  0
  4  6  2  0
  6  7  1  0
  6  8  1  0
  8  9  2  0
  9 10  1  0
 10 11  1  0
 11 12  1  0
 12 13  2  0
 13 14  1  0
 14 15  2  0
 15 16  1  0
 16 17  1  0
  9  2  1  0
 16 12  1  0
  1 18  1  0
  1 19  1  0
  1 20  1  0
  3 21  1  0
  8 22  1  0
 10 23  1  0
 11 24  1  0
 11 25  1  0
 13 26  1  0
 15 27  1  0
 17 28  1  0
 17 29  1  0
 17 30  1  0
M  END
>  <Unnamed: 0>  (104) 
685

>  <ID>  (104) 
TRAIN_0685

>  <Canonical_Smiles>  (104) 
Cc1cc(F)c(Br)cc1NCc2cncn2C

>  <Inhibition>  (104) 
93.671282

>  <TDC_conf_true_inhibitor>  (104) 
1

>  <TDC_conf_non_inhibitor>  (104) 
0

>  <split>  (104) 
1

$$$$
104
     RDKit          3D

 59 61  0  0  0  0  0  0  0  0999 V2000
   -2.3808   -4.4515    1.5036 C   0  0  0  0  0  0  0  0  0  0  0  0
   -2.5125   -2.9280    1.4603 C   0  0  0  0  0  0  0  0  0  0  0  0
   -2.8345   -2.2509    2.7741 C   0  0  0  0  0  0  0  0  0  0  0  0
   -2.4304   -2.7997    4.1221 C   0  0  0  0  0  0  0  0  0  0  0  0
   -3.8805   -2.7905    3.7226 C   0  0  0  0  0  0  0  0  0  0  0  0
   -1.3273   -2.3089    0.8408 N   0  0  0  0  0  0  0  0  0  0  0  0
   -1.6397   -1.4147   -0.1990 N   0  0  0  0  0  0  0  0  0  0  0  0
   -1.7365   -0.0627    0.0094 C   0  0  0  0  0  0  0  0  0  0  0  0
   -1.5187    0.5172    1.0615 O   0  0  0  0  0  0  0  0  0  0  0  0
   -2.1091    0.5214   -1.1551 O   0  0  0  0  0  0  0  0  0  0  0  0
   -2.2505    1.9626   -1.2500 C   0  0  0  0  0  0  0  0  0  0  0  0
   -3.3416    2.4853   -0.3094 C   0  0  0  0  0  0  0  0  0  0  0  0
   -2.6918    2.2141   -2.7004 C   0  0  0  0  0  0  0  0  0  0  0  0
   -0.9071    2.6617   -1.0199 C   0  0  0  0  0  0  0  0  0  0  0  0
   -0.0421   -2.3964    1.3788 C   0  0  0  0  0  0  0  0  0  0  0  0
    0.2428   -3.0417    2.3859 O   0  0  0  0  0  0  0  0  0  0  0  0
    1.0658   -1.6789    0.7009 C   0  0  0  0  0  0  0  0  0  0  0  0
    1.8894   -0.8524    1.4695 C   0  0  0  0  0  0  0  0  0  0  0  0
    2.9541   -0.1766    0.8706 C   0  0  0  0  0  0  0  0  0  0  0  0
    3.2058   -0.3190   -0.5018 C   0  0  0  0  0  0  0  0  0  0  0  0
    4.3538    0.4155   -1.1547 C   0  0  0  0  0  0  0  0  0  0  0  0
    4.2321    1.9364   -1.0632 C   0  0  0  0  0  0  0  0  0  0  0  0
    2.9876    2.5182   -1.7369 C   0  0  0  0  0  0  0  0  0  0  0  0
    3.5127    3.6742   -2.5357 C   0  0  0  0  0  0  0  0  0  0  0  0
    2.8343    4.4514   -3.1868 O   0  0  0  0  0  0  0  0  0  0  0  0
    4.8658    3.6808   -2.4655 N   0  0  0  0  0  0  0  0  0  0  0  0
    5.3646    2.6166   -1.7890 C   0  0  0  0  0  0  0  0  0  0  0  0
    6.5378    2.2842   -1.7690 O   0  0  0  0  0  0  0  0  0  0  0  0
    2.3913   -1.1752   -1.2583 C   0  0  0  0  0  0  0  0  0  0  0  0
    1.3298   -1.8590   -0.6602 C   0  0  0  0  0  0  0  0  0  0  0  0
   -2.1621   -4.8426    0.5037 H   0  0  0  0  0  0  0  0  0  0  0  0
   -1.5779   -4.7879    2.1648 H   0  0  0  0  0  0  0  0  0  0  0  0
   -3.3086   -4.9208    1.8448 H   0  0  0  0  0  0  0  0  0  0  0  0
   -3.3638   -2.7199    0.7965 H   0  0  0  0  0  0  0  0  0  0  0  0
   -2.8160   -1.1694    2.6643 H   0  0  0  0  0  0  0  0  0  0  0  0
   -2.0956   -2.0869    4.8679 H   0  0  0  0  0  0  0  0  0  0  0  0
   -1.9187   -3.7518    4.1798 H   0  0  0  0  0  0  0  0  0  0  0  0
   -4.5329   -2.0763    4.2137 H   0  0  0  0  0  0  0  0  0  0  0  0
   -4.3539   -3.7423    3.5183 H   0  0  0  0  0  0  0  0  0  0  0  0
   -1.8853   -1.7908   -1.1044 H   0  0  0  0  0  0  0  0  0  0  0  0
   -3.0480    2.4086    0.7418 H   0  0  0  0  0  0  0  0  0  0  0  0
   -3.5663    3.5388   -0.5084 H   0  0  0  0  0  0  0  0  0  0  0  0
   -4.2640    1.9050   -0.4224 H   0  0  0  0  0  0  0  0  0  0  0  0
   -3.6324    1.6933   -2.9174 H   0  0  0  0  0  0  0  0  0  0  0  0
   -2.8308    3.2807   -2.9050 H   0  0  0  0  0  0  0  0  0  0  0  0
   -1.9522    1.8195   -3.4066 H   0  0  0  0  0  0  0  0  0  0  0  0
   -0.1307    2.2209   -1.6547 H   0  0  0  0  0  0  0  0  0  0  0  0
   -0.5626    2.5585    0.0135 H   0  0  0  0  0  0  0  0  0  0  0  0
   -0.9705    3.7323   -1.2408 H   0  0  0  0  0  0  0  0  0  0  0  0
    1.6994   -0.7355    2.5343 H   0  0  0  0  0  0  0  0  0  0  0  0
    3.5893    0.4532    1.4903 H   0  0  0  0  0  0  0  0  0  0  0  0
    4.4427    0.1147   -2.2068 H   0  0  0  0  0  0  0  0  0  0  0  0
    5.2859    0.0845   -0.6782 H   0  0  0  0  0  0  0  0  0  0  0  0
    4.2730    2.2693   -0.0180 H   0  0  0  0  0  0  0  0  0  0  0  0
    2.5054    1.8121   -2.4203 H   0  0  0  0  0  0  0  0  0  0  0  0
    2.2650    2.8710   -0.9955 H   0  0  0  0  0  0  0  0  0  0  0  0
    5.4368    4.2925   -3.0275 H   0  0  0  0  0  0  0  0  0  0  0  0
    2.5837   -1.3245   -2.3192 H   0  0  0  0  0  0  0  0  0  0  0  0
    0.7267   -2.5398   -1.2535 H   0  0  0  0  0  0  0  0  0  0  0  0
  1  2  1  0
  2  3  1  0
  3  4  1  0
  4  5  1  0
  2  6  1  0
  6  7  1  0
  7  8  1  0
  8  9  2  0
  8 10  1  0
 10 11  1  0
 11 12  1  0
 11 13  1  0
 11 14  1  0
  6 15  1  0
 15 16  2  0
 15 17  1  0
 17 18  2  0
 18 19  1  0
 19 20  2  0
 20 21  1  0
 21 22  1  0
 22 23  1  0
 23 24  1  0
 24 25  2  0
 24 26  1  0
 26 27  1  0
 27 28  2  0
 20 29  1  0
 29 30  2  0
  5  3  1  0
 30 17  1  0
 27 22  1  0
  1 31  1  0
  1 32  1  0
  1 33  1  0
  2 34  1  0
  3 35  1  0
  4 36  1  0
  4 37  1  0
  5 38  1  0
  5 39  1  0
  7 40  1  0
 12 41  1  0
 12 42  1  0
 12 43  1  0
 13 44  1  0
 13 45  1  0
 13 46  1  0
 14 47  1  0
 14 48  1  0
 14 49  1  0
 18 50  1  0
 19 51  1  0
 21 52  1  0
 21 53  1  0
 22 54  1  0
 23 55  1  0
 23 56  1  0
 26 57  1  0
 29 58  1  0
 30 59  1  0
M  END
>  <Unnamed: 0>  (105) 
694

>  <ID>  (105) 
TRAIN_0694

>  <Canonical_Smiles>  (105) 
CC(C1CC1)N(NC(=O)OC(C)(C)C)C(=O)c2ccc(CC3CC(=O)NC3=O)cc2

>  <Inhibition>  (105) 
0.5

>  <TDC_conf_true_inhibitor>  (105) 
0

>  <TDC_conf_non_inhibitor>  (105) 
1

>  <split>  (105) 
1

$$$$
105
     RDKit          3D

 54 57  0  0  0  0  0  0  0  0999 V2000
    1.3980    0.3582   -3.8900 C   0  0  0  0  0  0  0  0  0  0  0  0
    0.7085    0.5840   -2.6139 N   0  0  0  0  0  0  0  0  0  0  0  0
    0.7538    2.0277   -2.2646 C   0  0  0  0  0  0  0  0  0  0  0  0
    2.1870    2.4978   -1.9764 C   0  0  0  0  0  0  0  0  0  0  0  0
    2.8077    3.1941   -2.7869 O   0  0  0  0  0  0  0  0  0  0  0  0
    2.7267    2.1081   -0.7596 N   0  0  0  0  0  0  0  0  0  0  0  0
    4.0873    2.4098   -0.3638 C   0  0  0  0  0  0  0  0  0  0  0  0
    4.1786    1.8736    1.0481 C   0  0  0  0  0  0  0  0  0  0  0  0
    2.9125    1.0605    1.0968 C   0  0  0  0  0  0  0  0  0  0  0  0
    2.0989    1.2492    0.1017 N   0  0  0  0  0  0  0  0  0  0  0  0
    2.6324    0.1214    2.2029 C   0  0  0  0  0  0  0  0  0  0  0  0
    3.3330    0.1856    3.4107 C   0  0  0  0  0  0  0  0  0  0  0  0
    3.0686   -0.7446    4.4205 C   0  0  0  0  0  0  0  0  0  0  0  0
    2.1078   -1.7366    4.2240 C   0  0  0  0  0  0  0  0  0  0  0  0
    1.4023   -1.7989    3.0239 C   0  0  0  0  0  0  0  0  0  0  0  0
    1.6622   -0.8698    2.0154 C   0  0  0  0  0  0  0  0  0  0  0  0
   -0.6655    0.0221   -2.6607 C   0  0  0  0  0  0  0  0  0  0  0  0
   -0.6316   -1.4855   -2.3973 C   0  0  0  0  0  0  0  0  0  0  0  0
   -0.9806   -1.6073   -0.9425 C   0  0  0  0  0  0  0  0  0  0  0  0
   -0.8065   -2.6142   -0.2703 O   0  0  0  0  0  0  0  0  0  0  0  0
   -1.5681   -0.4492   -0.5397 N   0  0  0  0  0  0  0  0  0  0  0  0
   -2.1656   -0.2483    0.7624 C   0  0  0  0  0  0  0  0  0  0  0  0
   -3.5834   -0.7709    0.9062 C   0  0  0  0  0  0  0  0  0  0  0  0
   -4.4607   -0.9091   -0.1813 C   0  0  0  0  0  0  0  0  0  0  0  0
   -5.7724   -1.3513    0.0125 C   0  0  0  0  0  0  0  0  0  0  0  0
   -6.2361   -1.6382    1.3001 C   0  0  0  0  0  0  0  0  0  0  0  0
   -5.3867   -1.4839    2.3932 C   0  0  0  0  0  0  0  0  0  0  0  0
   -4.0721   -1.0502    2.1994 C   0  0  0  0  0  0  0  0  0  0  0  0
   -1.5564    0.4987   -1.5195 C   0  0  0  0  0  0  0  0  0  0  0  0
   -2.1587    1.5667   -1.5066 O   0  0  0  0  0  0  0  0  0  0  0  0
    2.4556    0.6343   -3.8256 H   0  0  0  0  0  0  0  0  0  0  0  0
    1.3861   -0.7007   -4.1660 H   0  0  0  0  0  0  0  0  0  0  0  0
    0.9397    0.9212   -4.7124 H   0  0  0  0  0  0  0  0  0  0  0  0
    0.3322    2.6428   -3.0701 H   0  0  0  0  0  0  0  0  0  0  0  0
    0.1861    2.2538   -1.3558 H   0  0  0  0  0  0  0  0  0  0  0  0
    4.2813    3.4831   -0.4341 H   0  0  0  0  0  0  0  0  0  0  0  0
    4.7683    1.8835   -1.0419 H   0  0  0  0  0  0  0  0  0  0  0  0
    4.1273    2.6778    1.7891 H   0  0  0  0  0  0  0  0  0  0  0  0
    5.0702    1.2632    1.2098 H   0  0  0  0  0  0  0  0  0  0  0  0
    4.0849    0.9482    3.5889 H   0  0  0  0  0  0  0  0  0  0  0  0
    3.6137   -0.6988    5.3593 H   0  0  0  0  0  0  0  0  0  0  0  0
    1.9099   -2.4635    5.0083 H   0  0  0  0  0  0  0  0  0  0  0  0
    0.6578   -2.5762    2.8625 H   0  0  0  0  0  0  0  0  0  0  0  0
    1.1214   -0.9415    1.0758 H   0  0  0  0  0  0  0  0  0  0  0  0
   -1.1616    0.2463   -3.6139 H   0  0  0  0  0  0  0  0  0  0  0  0
    0.3379   -1.9510   -2.5916 H   0  0  0  0  0  0  0  0  0  0  0  0
   -1.4000   -2.0012   -2.9847 H   0  0  0  0  0  0  0  0  0  0  0  0
   -1.5292   -0.7516    1.5040 H   0  0  0  0  0  0  0  0  0  0  0  0
   -2.1721    0.8280    0.9876 H   0  0  0  0  0  0  0  0  0  0  0  0
   -4.1432   -0.6664   -1.1959 H   0  0  0  0  0  0  0  0  0  0  0  0
   -6.4385   -1.4581   -0.8411 H   0  0  0  0  0  0  0  0  0  0  0  0
   -7.2601   -1.9710    1.4510 H   0  0  0  0  0  0  0  0  0  0  0  0
   -5.7567   -1.6842    3.4016 H   0  0  0  0  0  0  0  0  0  0  0  0
   -3.4321   -0.9174    3.0725 H   0  0  0  0  0  0  0  0  0  0  0  0
  1  2  1  0
  2  3  1  0
  3  4  1  0
  4  5  2  0
  4  6  1  0
  6  7  1  0
  7  8  1  0
  8  9  1  0
  9 10  2  0
  9 11  1  0
 11 12  2  0
 12 13  1  0
 13 14  2  0
 14 15  1  0
 15 16  2  0
  2 17  1  0
 17 18  1  0
 18 19  1  0
 19 20  2  0
 19 21  1  0
 21 22  1  0
 22 23  1  0
 23 24  2  0
 24 25  1  0
 25 26  2  0
 26 27  1  0
 27 28  2  0
 21 29  1  0
 29 30  2  0
 10  6  1  0
 16 11  1  0
 29 17  1  0
 28 23  1  0
  1 31  1  0
  1 32  1  0
  1 33  1  0
  3 34  1  0
  3 35  1  0
  7 36  1  0
  7 37  1  0
  8 38  1  0
  8 39  1  0
 12 40  1  0
 13 41  1  0
 14 42  1  0
 15 43  1  0
 16 44  1  0
 17 45  1  0
 18 46  1  0
 18 47  1  0
 22 48  1  0
 22 49  1  0
 24 50  1  0
 25 51  1  0
 26 52  1  0
 27 53  1  0
 28 54  1  0
M  END
>  <Unnamed: 0>  (106) 
701

>  <ID>  (106) 
TRAIN_0701

>  <Canonical_Smiles>  (106) 
CN(CC(=O)N1CCC(=N1)c2ccccc2)C3CC(=O)N(Cc4ccccc4)C3=O

>  <Inhibition>  (106) 
26.880114

>  <TDC_conf_true_inhibitor>  (106) 
1

>  <TDC_conf_non_inhibitor>  (106) 
0

>  <split>  (106) 
1

$$$$
106
     RDKit          3D

 40 43  0  0  0  0  0  0  0  0999 V2000
    6.8037   -0.7727   -0.9312 C   0  0  0  0  0  0  0  0  0  0  0  0
    5.3945   -0.9106   -0.5696 N   0  0  0  0  0  0  0  0  0  0  0  0
    4.5177   -0.4779   -1.6840 C   0  0  0  0  0  0  0  0  0  0  0  0
    3.0239   -0.7683   -1.4022 C   0  0  0  0  0  0  0  0  0  0  0  0
    2.6715   -0.3545   -0.0164 C   0  0  0  0  0  0  0  0  0  0  0  0
    1.3686   -0.2194    0.4111 N   0  0  0  0  0  0  0  0  0  0  0  0
    1.3585    0.1328    1.6873 C   0  0  0  0  0  0  0  0  0  0  0  0
    2.9201    0.3184    2.4097 S   0  0  0  0  0  0  0  0  0  0  0  0
    3.6388   -0.1027    0.9299 C   0  0  0  0  0  0  0  0  0  0  0  0
    5.1092   -0.1563    0.6761 C   0  0  0  0  0  0  0  0  0  0  0  0
    0.1577    0.3506    2.4947 C   0  0  0  0  0  0  0  0  0  0  0  0
    0.1854    0.5196    3.7161 O   0  0  0  0  0  0  0  0  0  0  0  0
   -1.0901    0.3326    1.7391 C   0  0  0  0  0  0  0  0  0  0  0  0
   -2.1352   -0.3940    2.1055 N   0  0  0  0  0  0  0  0  0  0  0  0
   -3.1793   -0.1515    1.2399 C   0  0  0  0  0  0  0  0  0  0  0  0
   -4.4868   -0.8548    1.3429 C   0  0  0  0  0  0  0  0  0  0  0  0
   -5.5601   -0.1135    0.5101 C   0  0  0  0  0  0  0  0  0  0  0  0
   -5.0655    0.2678   -0.8350 N   0  0  0  0  0  0  0  0  0  0  0  0
   -6.1457    0.8200   -1.6495 C   0  0  0  0  0  0  0  0  0  0  0  0
   -3.9425    1.2342   -0.7499 C   0  0  0  0  0  0  0  0  0  0  0  0
   -2.9385    0.7854    0.2597 C   0  0  0  0  0  0  0  0  0  0  0  0
   -1.3622    1.4019    0.4072 S   0  0  0  0  0  0  0  0  0  0  0  0
    7.0369   -1.3867   -1.8080 H   0  0  0  0  0  0  0  0  0  0  0  0
    7.0738    0.2654   -1.1559 H   0  0  0  0  0  0  0  0  0  0  0  0
    7.4463   -1.1290   -0.1184 H   0  0  0  0  0  0  0  0  0  0  0  0
    4.6543    0.5959   -1.8728 H   0  0  0  0  0  0  0  0  0  0  0  0
    4.7931   -1.0049   -2.6059 H   0  0  0  0  0  0  0  0  0  0  0  0
    2.3993   -0.2394   -2.1300 H   0  0  0  0  0  0  0  0  0  0  0  0
    2.8304   -1.8424   -1.5092 H   0  0  0  0  0  0  0  0  0  0  0  0
    5.6157   -0.6472    1.5156 H   0  0  0  0  0  0  0  0  0  0  0  0
    5.4889    0.8712    0.6013 H   0  0  0  0  0  0  0  0  0  0  0  0
   -4.8069   -0.9176    2.3884 H   0  0  0  0  0  0  0  0  0  0  0  0
   -4.3679   -1.8771    0.9647 H   0  0  0  0  0  0  0  0  0  0  0  0
   -5.8942    0.7811    1.0536 H   0  0  0  0  0  0  0  0  0  0  0  0
   -6.4287   -0.7771    0.4169 H   0  0  0  0  0  0  0  0  0  0  0  0
   -6.5774    1.7248   -1.2067 H   0  0  0  0  0  0  0  0  0  0  0  0
   -5.7833    1.0657   -2.6539 H   0  0  0  0  0  0  0  0  0  0  0  0
   -6.9464    0.0830   -1.7762 H   0  0  0  0  0  0  0  0  0  0  0  0
   -4.3092    2.2278   -0.4603 H   0  0  0  0  0  0  0  0  0  0  0  0
   -3.4686    1.3192   -1.7350 H   0  0  0  0  0  0  0  0  0  0  0  0
  1  2  1  0
  2  3  1  0
  3  4  1  0
  4  5  1  0
  5  6  1  0
  6  7  2  0
  7  8  1  0
  8  9  1  0
  9 10  1  0
  7 11  1  0
 11 12  2  0
 11 13  1  0
 13 14  2  0
 14 15  1  0
 15 16  1  0
 16 17  1  0
 17 18  1  0
 18 19  1  0
 18 20  1  0
 20 21  1  0
 21 22  1  0
 10  2  1  0
  9  5  2  0
 22 13  1  0
 21 15  2  0
  1 23  1  0
  1 24  1  0
  1 25  1  0
  3 26  1  0
  3 27  1  0
  4 28  1  0
  4 29  1  0
 10 30  1  0
 10 31  1  0
 16 32  1  0
 16 33  1  0
 17 34  1  0
 17 35  1  0
 19 36  1  0
 19 37  1  0
 19 38  1  0
 20 39  1  0
 20 40  1  0
M  END
>  <Unnamed: 0>  (107) 
705

>  <ID>  (107) 
TRAIN_0705

>  <Canonical_Smiles>  (107) 
CN1CCc2nc(sc2C1)C(=O)c3nc4CCN(C)Cc4s3

>  <Inhibition>  (107) 
30.950437

>  <TDC_conf_true_inhibitor>  (107) 
0

>  <TDC_conf_non_inhibitor>  (107) 
1

>  <split>  (107) 
1

$$$$
107
     RDKit          3D

 33 35  0  0  0  0  0  0  0  0999 V2000
   -4.8738    2.3886   -0.9910 Cl  0  0  0  0  0  0  0  0  0  0  0  0
   -5.4328    0.7482   -0.9722 C   0  0  0  0  0  0  0  0  0  0  0  0
   -6.0322    0.2455   -2.0594 C   0  0  0  0  0  0  0  0  0  0  0  0
   -5.2247    0.0021    0.3148 C   0  0  0  0  0  0  0  0  0  0  0  0
   -3.8188   -0.1841    0.5140 O   0  0  0  0  0  0  0  0  0  0  0  0
   -3.5140   -0.8462    1.6530 C   0  0  0  0  0  0  0  0  0  0  0  0
   -4.3178   -1.2869    2.4607 O   0  0  0  0  0  0  0  0  0  0  0  0
   -2.0572   -0.9953    1.8288 C   0  0  0  0  0  0  0  0  0  0  0  0
   -1.1431   -0.4956    0.9831 C   0  0  0  0  0  0  0  0  0  0  0  0
    0.2372   -0.6889    1.2388 C   0  0  0  0  0  0  0  0  0  0  0  0
    0.8590   -1.3216    2.2205 N   0  0  0  0  0  0  0  0  0  0  0  0
    2.2181   -1.2228    2.0164 N   0  0  0  0  0  0  0  0  0  0  0  0
    2.4007   -0.5315    0.9140 C   0  0  0  0  0  0  0  0  0  0  0  0
    3.6132   -0.1316    0.2395 C   0  0  0  0  0  0  0  0  0  0  0  0
    4.8907   -0.4468    0.6991 C   0  0  0  0  0  0  0  0  0  0  0  0
    6.0072   -0.0150   -0.0220 C   0  0  0  0  0  0  0  0  0  0  0  0
    5.8478    0.7283   -1.1969 C   0  0  0  0  0  0  0  0  0  0  0  0
    4.5704    1.0468   -1.6617 C   0  0  0  0  0  0  0  0  0  0  0  0
    3.4628    0.6122   -0.9364 C   0  0  0  0  0  0  0  0  0  0  0  0
    2.0850    0.9207   -1.3831 C   0  0  0  0  0  0  0  0  0  0  0  0
    0.9876    0.5608   -0.7768 N   0  0  0  0  0  0  0  0  0  0  0  0
    1.1848   -0.1679    0.3768 N   0  0  0  0  0  0  0  0  0  0  0  0
   -6.4022   -0.7743   -2.0792 H   0  0  0  0  0  0  0  0  0  0  0  0
   -6.1635    0.8382   -2.9594 H   0  0  0  0  0  0  0  0  0  0  0  0
   -5.6495    0.5745    1.1488 H   0  0  0  0  0  0  0  0  0  0  0  0
   -5.7174   -0.9773    0.2735 H   0  0  0  0  0  0  0  0  0  0  0  0
   -1.7714   -1.5491    2.7185 H   0  0  0  0  0  0  0  0  0  0  0  0
   -1.4390    0.0622    0.0982 H   0  0  0  0  0  0  0  0  0  0  0  0
    5.0214   -1.0243    1.6123 H   0  0  0  0  0  0  0  0  0  0  0  0
    7.0062   -0.2590    0.3338 H   0  0  0  0  0  0  0  0  0  0  0  0
    6.7257    1.0585   -1.7487 H   0  0  0  0  0  0  0  0  0  0  0  0
    4.4556    1.6243   -2.5746 H   0  0  0  0  0  0  0  0  0  0  0  0
    1.9840    1.5074   -2.3124 H   0  0  0  0  0  0  0  0  0  0  0  0
  1  2  1  0
  2  3  2  0
  2  4  1  0
  4  5  1  0
  5  6  1  0
  6  7  2  0
  6  8  1  0
  8  9  2  0
  9 10  1  0
 10 11  2  0
 11 12  1  0
 12 13  2  0
 13 14  1  0
 14 15  2  0
 15 16  1  0
 16 17  2  0
 17 18  1  0
 18 19  2  0
 19 20  1  0
 20 21  2  0
 21 22  1  0
 22 10  1  0
 22 13  1  0
 19 14  1  0
  3 23  1  0
  3 24  1  0
  4 25  1  0
  4 26  1  0
  8 27  1  0
  9 28  1  0
 15 29  1  0
 16 30  1  0
 17 31  1  0
 18 32  1  0
 20 33  1  0
M  END
>  <Unnamed: 0>  (108) 
719

>  <ID>  (108) 
TRAIN_0719

>  <Canonical_Smiles>  (108) 
ClC(=C)COC(=O)\C=C\c1nnc2c3ccccc3cnn12

>  <Inhibition>  (108) 
17.995935

>  <TDC_conf_true_inhibitor>  (108) 
0

>  <TDC_conf_non_inhibitor>  (108) 
1

>  <split>  (108) 
1

$$$$
108
     RDKit          3D

 49 50  0  0  0  0  0  0  0  0999 V2000
   -4.3518   -0.1135   -1.5023 C   0  0  0  0  0  0  0  0  0  0  0  0
   -4.2986   -0.5367   -0.0259 C   0  0  0  0  0  0  0  0  0  0  0  0
   -5.5556   -0.0066    0.6905 C   0  0  0  0  0  0  0  0  0  0  0  0
   -4.3251   -2.0840    0.0578 C   0  0  0  0  0  0  0  0  0  0  0  0
   -3.2167   -2.6505   -0.6326 O   0  0  0  0  0  0  0  0  0  0  0  0
   -3.0089   -0.0221    0.6792 C   0  0  0  0  0  0  0  0  0  0  0  0
   -2.7320    1.4911    0.6426 C   0  0  0  0  0  0  0  0  0  0  0  0
   -1.8794    1.9671   -0.5391 C   0  0  0  0  0  0  0  0  0  0  0  0
   -0.5551    1.3784   -0.5681 N   0  0  0  0  0  0  0  0  0  0  0  0
    0.4399    1.8171    0.2670 C   0  0  0  0  0  0  0  0  0  0  0  0
    0.2818    2.7556    1.0430 O   0  0  0  0  0  0  0  0  0  0  0  0
    1.6332    1.1201    0.1626 N   0  0  0  0  0  0  0  0  0  0  0  0
    1.9547    0.1705   -0.9059 C   0  0  0  0  0  0  0  0  0  0  0  0
    3.4498    0.1142   -1.1823 C   0  0  0  0  0  0  0  0  0  0  0  0
    4.2270   -0.2770    0.0771 C   0  0  0  0  0  0  0  0  0  0  0  0
    3.5807    0.2271    1.3722 C   0  0  0  0  0  0  0  0  0  0  0  0
    2.7014    1.4400    1.1083 C   0  0  0  0  0  0  0  0  0  0  0  0
    5.5579    0.2650   -0.0393 O   0  0  0  0  0  0  0  0  0  0  0  0
    6.4270   -0.8165    0.2928 C   0  0  0  0  0  0  0  0  0  0  0  0
    5.6681   -2.0227   -0.1823 C   0  0  0  0  0  0  0  0  0  0  0  0
    4.3157   -1.7149    0.1541 O   0  0  0  0  0  0  0  0  0  0  0  0
   -5.1901   -0.5957   -2.0184 H   0  0  0  0  0  0  0  0  0  0  0  0
   -3.4344   -0.3897   -2.0330 H   0  0  0  0  0  0  0  0  0  0  0  0
   -4.4951    0.9670   -1.6057 H   0  0  0  0  0  0  0  0  0  0  0  0
   -5.6450    1.0812    0.6109 H   0  0  0  0  0  0  0  0  0  0  0  0
   -5.5429   -0.2654    1.7551 H   0  0  0  0  0  0  0  0  0  0  0  0
   -6.4657   -0.4367    0.2564 H   0  0  0  0  0  0  0  0  0  0  0  0
   -4.2842   -2.4175    1.1009 H   0  0  0  0  0  0  0  0  0  0  0  0
   -5.2414   -2.4836   -0.3915 H   0  0  0  0  0  0  0  0  0  0  0  0
   -3.2878   -3.6159   -0.5361 H   0  0  0  0  0  0  0  0  0  0  0  0
   -3.0801   -0.3093    1.7380 H   0  0  0  0  0  0  0  0  0  0  0  0
   -2.1353   -0.5614    0.2967 H   0  0  0  0  0  0  0  0  0  0  0  0
   -3.6669    2.0592    0.6593 H   0  0  0  0  0  0  0  0  0  0  0  0
   -2.2049    1.7520    1.5694 H   0  0  0  0  0  0  0  0  0  0  0  0
   -2.3502    1.7349   -1.4964 H   0  0  0  0  0  0  0  0  0  0  0  0
   -1.7693    3.0564   -0.4847 H   0  0  0  0  0  0  0  0  0  0  0  0
   -0.5050    0.4096   -0.8411 H   0  0  0  0  0  0  0  0  0  0  0  0
    1.4292    0.4545   -1.8237 H   0  0  0  0  0  0  0  0  0  0  0  0
    1.5795   -0.8112   -0.5941 H   0  0  0  0  0  0  0  0  0  0  0  0
    3.6449   -0.5988   -1.9923 H   0  0  0  0  0  0  0  0  0  0  0  0
    3.7861    1.0956   -1.5421 H   0  0  0  0  0  0  0  0  0  0  0  0
    2.9656   -0.5651    1.8193 H   0  0  0  0  0  0  0  0  0  0  0  0
    4.3471    0.4873    2.1118 H   0  0  0  0  0  0  0  0  0  0  0  0
    2.2707    1.7943    2.0515 H   0  0  0  0  0  0  0  0  0  0  0  0
    3.2856    2.2659    0.6851 H   0  0  0  0  0  0  0  0  0  0  0  0
    7.3987   -0.6955   -0.1920 H   0  0  0  0  0  0  0  0  0  0  0  0
    6.5620   -0.8257    1.3797 H   0  0  0  0  0  0  0  0  0  0  0  0
    5.9843   -2.9522    0.2973 H   0  0  0  0  0  0  0  0  0  0  0  0
    5.7307   -2.1362   -1.2699 H   0  0  0  0  0  0  0  0  0  0  0  0
  1  2  1  0
  2  3  1  0
  2  4  1  0
  4  5  1  0
  2  6  1  0
  6  7  1  0
  7  8  1  0
  8  9  1  0
  9 10  1  0
 10 11  2  0
 10 12  1  0
 12 13  1  0
 13 14  1  0
 14 15  1  0
 15 16  1  0
 16 17  1  0
 15 18  1  0
 18 19  1  0
 19 20  1  0
 20 21  1  0
 17 12  1  0
 21 15  1  0
  1 22  1  0
  1 23  1  0
  1 24  1  0
  3 25  1  0
  3 26  1  0
  3 27  1  0
  4 28  1  0
  4 29  1  0
  5 30  1  0
  6 31  1  0
  6 32  1  0
  7 33  1  0
  7 34  1  0
  8 35  1  0
  8 36  1  0
  9 37  1  0
 13 38  1  0
 13 39  1  0
 14 40  1  0
 14 41  1  0
 16 42  1  0
 16 43  1  0
 17 44  1  0
 17 45  1  0
 19 46  1  0
 19 47  1  0
 20 48  1  0
 20 49  1  0
M  END
>  <Unnamed: 0>  (109) 
722

>  <ID>  (109) 
TRAIN_0722

>  <Canonical_Smiles>  (109) 
CC(C)(CO)CCCNC(=O)N1CCC2(CC1)OCCO2

>  <Inhibition>  (109) 
12.605319

>  <TDC_conf_true_inhibitor>  (109) 
0

>  <TDC_conf_non_inhibitor>  (109) 
1

>  <split>  (109) 
1

$$$$
109
     RDKit          3D

 51 52  0  0  0  0  0  0  0  0999 V2000
   -7.4875   -1.7847    1.5927 F   0  0  0  0  0  0  0  0  0  0  0  0
   -7.2209   -2.0753    0.2943 C   0  0  0  0  0  0  0  0  0  0  0  0
   -8.4032   -2.3666   -0.3018 F   0  0  0  0  0  0  0  0  0  0  0  0
   -6.5393   -0.8934   -0.3950 C   0  0  0  0  0  0  0  0  0  0  0  0
   -5.2034   -0.5915    0.3007 C   0  0  0  0  0  0  0  0  0  0  0  0
   -4.4928    0.5038   -0.3709 N   0  0  0  0  0  0  0  0  0  0  0  0
   -5.3367    1.4260   -1.1319 C   0  0  0  0  0  0  0  0  0  0  0  0
   -6.7343    1.5173   -0.5162 C   0  0  0  0  0  0  0  0  0  0  0  0
   -7.4132    0.2568   -0.4213 O   0  0  0  0  0  0  0  0  0  0  0  0
   -3.1226    0.6457   -0.4479 C   0  0  0  0  0  0  0  0  0  0  0  0
   -2.5808    1.4399   -1.2090 O   0  0  0  0  0  0  0  0  0  0  0  0
   -2.4177   -0.1883    0.3827 N   0  0  0  0  0  0  0  0  0  0  0  0
   -0.9667   -0.0829    0.4800 C   0  0  0  0  0  0  0  0  0  0  0  0
   -0.2305   -0.3443   -0.8438 C   0  0  0  0  0  0  0  0  0  0  0  0
    1.1195   -0.8652   -0.6814 N   0  0  0  0  0  0  0  0  0  0  0  0
    2.0887   -0.1673    0.0112 C   0  0  0  0  0  0  0  0  0  0  0  0
    1.8521    0.8325    0.6779 O   0  0  0  0  0  0  0  0  0  0  0  0
    3.4633   -0.8069   -0.0999 C   0  0  0  0  0  0  0  0  0  0  0  0
    4.5910    0.0474    0.5017 C   0  0  0  0  0  0  0  0  0  0  0  0
    5.8575   -0.8057    0.6853 C   0  0  0  0  0  0  0  0  0  0  0  0
    7.0206    0.0148    1.2376 C   0  0  0  0  0  0  0  0  0  0  0  0
    7.3094    1.2358    0.3711 C   0  0  0  0  0  0  0  0  0  0  0  0
    6.0616    2.0902    0.1755 C   0  0  0  0  0  0  0  0  0  0  0  0
    4.8986    1.2708   -0.3798 C   0  0  0  0  0  0  0  0  0  0  0  0
   -6.5963   -2.9731    0.2672 H   0  0  0  0  0  0  0  0  0  0  0  0
   -6.3633   -1.1665   -1.4430 H   0  0  0  0  0  0  0  0  0  0  0  0
   -5.3719   -0.2602    1.3324 H   0  0  0  0  0  0  0  0  0  0  0  0
   -4.5720   -1.4857    0.3216 H   0  0  0  0  0  0  0  0  0  0  0  0
   -4.8699    2.4158   -1.1727 H   0  0  0  0  0  0  0  0  0  0  0  0
   -5.3954    1.0326   -2.1535 H   0  0  0  0  0  0  0  0  0  0  0  0
   -7.3662    2.1893   -1.1053 H   0  0  0  0  0  0  0  0  0  0  0  0
   -6.6730    1.9301    0.4975 H   0  0  0  0  0  0  0  0  0  0  0  0
   -2.8767   -0.3392    1.2678 H   0  0  0  0  0  0  0  0  0  0  0  0
   -0.6620   -0.8166    1.2347 H   0  0  0  0  0  0  0  0  0  0  0  0
   -0.7282    0.9148    0.8646 H   0  0  0  0  0  0  0  0  0  0  0  0
   -0.1612    0.5747   -1.4357 H   0  0  0  0  0  0  0  0  0  0  0  0
   -0.7724   -1.0878   -1.4390 H   0  0  0  0  0  0  0  0  0  0  0  0
    1.4316   -1.5427   -1.3647 H   0  0  0  0  0  0  0  0  0  0  0  0
    3.6735   -1.0219   -1.1546 H   0  0  0  0  0  0  0  0  0  0  0  0
    3.4049   -1.7658    0.4305 H   0  0  0  0  0  0  0  0  0  0  0  0
    4.2790    0.4056    1.4922 H   0  0  0  0  0  0  0  0  0  0  0  0
    5.6510   -1.6383    1.3685 H   0  0  0  0  0  0  0  0  0  0  0  0
    6.1511   -1.2481   -0.2753 H   0  0  0  0  0  0  0  0  0  0  0  0
    7.9169   -0.6126    1.3001 H   0  0  0  0  0  0  0  0  0  0  0  0
    6.7857    0.3388    2.2590 H   0  0  0  0  0  0  0  0  0  0  0  0
    8.1005    1.8374    0.8326 H   0  0  0  0  0  0  0  0  0  0  0  0
    7.6850    0.9091   -0.6064 H   0  0  0  0  0  0  0  0  0  0  0  0
    5.7689    2.5355    1.1344 H   0  0  0  0  0  0  0  0  0  0  0  0
    6.2863    2.9187   -0.5058 H   0  0  0  0  0  0  0  0  0  0  0  0
    5.1444    0.9432   -1.3982 H   0  0  0  0  0  0  0  0  0  0  0  0
    4.0174    1.9168   -0.4607 H   0  0  0  0  0  0  0  0  0  0  0  0
  1  2  1  0
  2  3  1  0
  2  4  1  0
  4  5  1  0
  5  6  1  0
  6  7  1  0
  7  8  1  0
  8  9  1  0
  6 10  1  0
 10 11  2  0
 10 12  1  0
 12 13  1  0
 13 14  1  0
 14 15  1  0
 15 16  1  0
 16 17  2  0
 16 18  1  0
 18 19  1  0
 19 20  1  0
 20 21  1  0
 21 22  1  0
 22 23  1  0
 23 24  1  0
  9  4  1  0
 24 19  1  0
  2 25  1  0
  4 26  1  0
  5 27  1  0
  5 28  1  0
  7 29  1  0
  7 30  1  0
  8 31  1  0
  8 32  1  0
 12 33  1  0
 13 34  1  0
 13 35  1  0
 14 36  1  0
 14 37  1  0
 15 38  1  0
 18 39  1  0
 18 40  1  0
 19 41  1  0
 20 42  1  0
 20 43  1  0
 21 44  1  0
 21 45  1  0
 22 46  1  0
 22 47  1  0
 23 48  1  0
 23 49  1  0
 24 50  1  0
 24 51  1  0
M  END
>  <Unnamed: 0>  (110) 
726

>  <ID>  (110) 
TRAIN_0726

>  <Canonical_Smiles>  (110) 
FC(F)C1CN(CCO1)C(=O)NCCNC(=O)CC2CCCCC2

>  <Inhibition>  (110) 
22.000243

>  <TDC_conf_true_inhibitor>  (110) 
0

>  <TDC_conf_non_inhibitor>  (110) 
1

>  <split>  (110) 
1

$$$$
110
     RDKit          3D

 32 34  0  0  0  0  0  0  0  0999 V2000
   -1.1554    0.4981    1.8614 F   0  0  0  0  0  0  0  0  0  0  0  0
   -2.1321    1.3142    1.3711 C   0  0  0  0  0  0  0  0  0  0  0  0
   -2.7044    1.9027    2.4656 F   0  0  0  0  0  0  0  0  0  0  0  0
   -1.5145    2.3229    0.6974 F   0  0  0  0  0  0  0  0  0  0  0  0
   -3.3605    0.4144    0.3742 S   0  0  0  0  0  6  0  0  0  0  0  0
   -3.9736    1.2709   -0.6299 O   0  0  0  0  0  0  0  0  0  0  0  0
   -4.2466   -0.3235    1.2700 O   0  0  0  0  0  0  0  0  0  0  0  0
   -2.4055   -0.8231   -0.4984 C   0  0  0  0  0  0  0  0  0  0  0  0
   -2.5490   -2.1585   -0.0737 C   0  0  0  0  0  0  0  0  0  0  0  0
   -1.8749   -3.1880   -0.7279 C   0  0  0  0  0  0  0  0  0  0  0  0
   -1.0633   -2.8972   -1.8164 C   0  0  0  0  0  0  0  0  0  0  0  0
   -0.9253   -1.5765   -2.2476 C   0  0  0  0  0  0  0  0  0  0  0  0
   -1.5871   -0.5171   -1.5964 C   0  0  0  0  0  0  0  0  0  0  0  0
   -1.2957    1.1133   -2.2670 S   0  0  0  0  0  0  0  0  0  0  0  0
    0.2673    1.4840   -1.5838 C   0  0  0  0  0  0  0  0  0  0  0  0
    1.0863    2.3837   -2.1360 N   0  0  0  0  0  0  0  0  0  0  0  0
    2.1172    2.3662   -1.2761 N   0  0  0  0  0  0  0  0  0  0  0  0
    1.8984    1.4799   -0.2646 C   0  0  0  0  0  0  0  0  0  0  0  0
    0.7300    0.9065   -0.4310 N   0  0  0  0  0  0  0  0  0  0  0  0
    2.8616    1.1959    0.9122 C   0  0  0  0  0  0  0  0  0  0  0  0
    4.1282    0.4242    0.6509 C   0  0  0  0  0  0  0  0  0  0  0  0
    3.0027   -0.2196    1.4074 C   0  0  0  0  0  0  0  0  0  0  0  0
   -3.1937   -2.4172    0.7651 H   0  0  0  0  0  0  0  0  0  0  0  0
   -1.9920   -4.2161   -0.3930 H   0  0  0  0  0  0  0  0  0  0  0  0
   -0.5387   -3.6957   -2.3357 H   0  0  0  0  0  0  0  0  0  0  0  0
   -0.2842   -1.3792   -3.1063 H   0  0  0  0  0  0  0  0  0  0  0  0
    2.9166    2.9682   -1.4358 H   0  0  0  0  0  0  0  0  0  0  0  0
    2.8923    1.9776    1.6643 H   0  0  0  0  0  0  0  0  0  0  0  0
    4.3279    0.0580   -0.3499 H   0  0  0  0  0  0  0  0  0  0  0  0
    5.0166    0.7000    1.2075 H   0  0  0  0  0  0  0  0  0  0  0  0
    3.1211   -0.3715    2.4739 H   0  0  0  0  0  0  0  0  0  0  0  0
    2.4303   -0.9974    0.9131 H   0  0  0  0  0  0  0  0  0  0  0  0
  1  2  1  0
  2  3  1  0
  2  4  1  0
  2  5  1  0
  5  6  2  0
  5  7  2  0
  5  8  1  0
  8  9  2  0
  9 10  1  0
 10 11  2  0
 11 12  1  0
 12 13  2  0
 13 14  1  0
 14 15  1  0
 15 16  2  0
 16 17  1  0
 17 18  1  0
 18 19  2  0
 18 20  1  0
 20 21  1  0
 21 22  1  0
 13  8  1  0
 19 15  1  0
 22 20  1  0
  9 23  1  0
 10 24  1  0
 11 25  1  0
 12 26  1  0
 17 27  1  0
 20 28  1  0
 21 29  1  0
 21 30  1  0
 22 31  1  0
 22 32  1  0
M  END
>  <Unnamed: 0>  (111) 
733

>  <ID>  (111) 
TRAIN_0733

>  <Canonical_Smiles>  (111) 
FC(F)(F)S(=O)(=O)c1ccccc1Sc2n[nH]c(n2)C3CC3

>  <Inhibition>  (111) 
40.15774

>  <TDC_conf_true_inhibitor>  (111) 
1

>  <TDC_conf_non_inhibitor>  (111) 
0

>  <split>  (111) 
1

$$$$
111
     RDKit          3D

 33 35  0  0  0  0  0  0  0  0999 V2000
    5.3002    0.3040    0.8388 C   0  0  0  0  0  0  0  0  0  0  0  0
    3.8638    0.2813    0.3493 C   0  0  0  0  0  0  0  0  0  0  0  0
    3.5163   -0.9736   -0.4199 C   0  0  0  0  0  0  0  0  0  0  0  0
    2.0254   -1.1139   -0.1902 C   0  0  0  0  0  0  0  0  0  0  0  0
    1.0332   -0.2495   -1.4545 S   0  0  0  0  0  0  0  0  0  0  0  0
   -0.5100   -0.9543   -1.1085 C   0  0  0  0  0  0  0  0  0  0  0  0
   -0.7323   -2.2459   -1.2226 N   0  0  0  0  0  0  0  0  0  0  0  0
   -2.0379   -2.4826   -0.8812 N   0  0  0  0  0  0  0  0  0  0  0  0
   -2.5789   -1.3285   -0.5630 C   0  0  0  0  0  0  0  0  0  0  0  0
   -3.8781   -0.9784   -0.1458 C   0  0  0  0  0  0  0  0  0  0  0  0
   -4.1488    0.3158    0.1012 C   0  0  0  0  0  0  0  0  0  0  0  0
   -5.5151    0.7541    0.5483 C   0  0  0  0  0  0  0  0  0  0  0  0
   -3.2193    1.3299   -0.0271 N   0  0  0  0  0  0  0  0  0  0  0  0
   -2.0115    1.0116   -0.4005 C   0  0  0  0  0  0  0  0  0  0  0  0
   -0.9701    2.0740   -0.5441 C   0  0  0  0  0  0  0  0  0  0  0  0
   -1.6516   -0.3089   -0.6863 N   0  0  0  0  0  0  0  0  0  0  0  0
    1.8435   -0.4168    1.1369 C   0  0  0  0  0  0  0  0  0  0  0  0
    0.8248   -0.4151    1.8115 O   0  0  0  0  0  0  0  0  0  0  0  0
    2.9716    0.2831    1.4666 O   0  0  0  0  0  0  0  0  0  0  0  0
    6.0040    0.2764    0.0017 H   0  0  0  0  0  0  0  0  0  0  0  0
    5.4871    1.2104    1.4245 H   0  0  0  0  0  0  0  0  0  0  0  0
    5.5058   -0.5433    1.5021 H   0  0  0  0  0  0  0  0  0  0  0  0
    3.6660    1.1822   -0.2440 H   0  0  0  0  0  0  0  0  0  0  0  0
    4.0200   -1.8384    0.0323 H   0  0  0  0  0  0  0  0  0  0  0  0
    3.8223   -0.9358   -1.4701 H   0  0  0  0  0  0  0  0  0  0  0  0
    1.7563   -2.1718   -0.1138 H   0  0  0  0  0  0  0  0  0  0  0  0
   -4.6213   -1.7597   -0.0372 H   0  0  0  0  0  0  0  0  0  0  0  0
   -5.4515    1.2744    1.5099 H   0  0  0  0  0  0  0  0  0  0  0  0
   -5.9512    1.4380   -0.1873 H   0  0  0  0  0  0  0  0  0  0  0  0
   -6.2015   -0.0905    0.6692 H   0  0  0  0  0  0  0  0  0  0  0  0
   -0.1371    1.8901    0.1378 H   0  0  0  0  0  0  0  0  0  0  0  0
   -0.6248    2.1339   -1.5790 H   0  0  0  0  0  0  0  0  0  0  0  0
   -1.3994    3.0475   -0.2840 H   0  0  0  0  0  0  0  0  0  0  0  0
  1  2  1  0
  2  3  1  0
  3  4  1  0
  4  5  1  0
  5  6  1  0
  6  7  2  0
  7  8  1  0
  8  9  2  0
  9 10  1  0
 10 11  2  0
 11 12  1  0
 11 13  1  0
 13 14  2  0
 14 15  1  0
 14 16  1  0
  4 17  1  0
 17 18  2  0
 17 19  1  0
 19  2  1  0
 16  6  1  0
 16  9  1  0
  1 20  1  0
  1 21  1  0
  1 22  1  0
  2 23  1  0
  3 24  1  0
  3 25  1  0
  4 26  1  0
 10 27  1  0
 12 28  1  0
 12 29  1  0
 12 30  1  0
 15 31  1  0
 15 32  1  0
 15 33  1  0
M  END
>  <Unnamed: 0>  (112) 
734

>  <ID>  (112) 
TRAIN_0734

>  <Canonical_Smiles>  (112) 
CC1CC(Sc2nnc3cc(C)nc(C)n23)C(=O)O1

>  <Inhibition>  (112) 
14.86024

>  <TDC_conf_true_inhibitor>  (112) 
0

>  <TDC_conf_non_inhibitor>  (112) 
1

>  <split>  (112) 
1

$$$$
112
     RDKit          3D

 47 49  0  0  0  0  0  0  0  0999 V2000
    8.4328    0.1662   -0.7986 O   0  0  0  0  0  0  0  0  0  0  0  0
    7.8544    0.2957    0.4128 C   0  0  0  0  0  0  0  0  0  0  0  0
    8.2900    1.0904    1.2295 O   0  0  0  0  0  0  0  0  0  0  0  0
    6.7041   -0.6422    0.6058 C   0  0  0  0  0  0  0  0  0  0  0  0
    5.5351   -0.2804   -0.2972 C   0  0  0  0  0  0  0  0  0  0  0  0
    4.4420   -1.3479   -0.2333 C   0  0  0  0  0  0  0  0  0  0  0  0
    3.2806   -0.9598   -1.0150 N   0  0  0  0  0  0  0  0  0  0  0  0
    2.2679   -0.2478   -0.4338 C   0  0  0  0  0  0  0  0  0  0  0  0
    2.2269    0.0901    0.7381 O   0  0  0  0  0  0  0  0  0  0  0  0
    1.2598    0.0145   -1.3124 N   0  0  0  0  0  0  0  0  0  0  0  0
    0.1415    0.8587   -0.9285 C   0  0  0  0  0  0  0  0  0  0  0  0
   -0.9099    0.0086   -0.2333 C   0  0  0  0  0  0  0  0  0  0  0  0
   -2.0439   -0.1963   -0.7906 N   0  0  0  0  0  0  0  0  0  0  0  0
   -3.0722   -0.9206   -0.0412 C   0  0  0  0  0  0  0  0  0  0  0  0
   -2.5212   -1.9399    0.9378 C   0  0  0  0  0  0  0  0  0  0  0  0
   -3.6206   -1.9190    1.9440 C   0  0  0  0  0  0  0  0  0  0  0  0
   -4.4343   -0.9180    1.8707 N   0  0  0  0  0  0  0  0  0  0  0  0
   -4.0188   -0.1623    0.7949 N   0  0  0  0  0  0  0  0  0  0  0  0
   -4.8907    0.8126    0.2884 C   0  0  0  0  0  0  0  0  0  0  0  0
   -4.7463    1.3840   -0.9887 C   0  0  0  0  0  0  0  0  0  0  0  0
   -5.6111    2.3849   -1.4542 C   0  0  0  0  0  0  0  0  0  0  0  0
   -6.6483    2.8402   -0.6460 C   0  0  0  0  0  0  0  0  0  0  0  0
   -6.8202    2.2939    0.6228 C   0  0  0  0  0  0  0  0  0  0  0  0
   -5.9486    1.2987    1.0801 C   0  0  0  0  0  0  0  0  0  0  0  0
   -1.2346   -1.5275    1.5704 C   0  0  0  0  0  0  0  0  0  0  0  0
   -0.7714   -2.1227    2.5419 O   0  0  0  0  0  0  0  0  0  0  0  0
   -0.5519   -0.5166    0.9707 N   0  0  0  0  0  0  0  0  0  0  0  0
    9.1654    0.8183   -0.7693 H   0  0  0  0  0  0  0  0  0  0  0  0
    6.3985   -0.5967    1.6553 H   0  0  0  0  0  0  0  0  0  0  0  0
    7.0569   -1.6619    0.4193 H   0  0  0  0  0  0  0  0  0  0  0  0
    5.8714   -0.1681   -1.3388 H   0  0  0  0  0  0  0  0  0  0  0  0
    5.1379    0.6984   -0.0006 H   0  0  0  0  0  0  0  0  0  0  0  0
    4.8079   -2.2917   -0.6547 H   0  0  0  0  0  0  0  0  0  0  0  0
    4.1390   -1.5375    0.8089 H   0  0  0  0  0  0  0  0  0  0  0  0
    2.9807   -1.6138   -1.7170 H   0  0  0  0  0  0  0  0  0  0  0  0
    1.4842   -0.0472   -2.2985 H   0  0  0  0  0  0  0  0  0  0  0  0
   -0.2751    1.3041   -1.8347 H   0  0  0  0  0  0  0  0  0  0  0  0
    0.4819    1.6552   -0.2556 H   0  0  0  0  0  0  0  0  0  0  0  0
   -3.6669   -1.4717   -0.7862 H   0  0  0  0  0  0  0  0  0  0  0  0
   -2.4002   -2.9276    0.4880 H   0  0  0  0  0  0  0  0  0  0  0  0
   -3.6963   -2.6983    2.7146 H   0  0  0  0  0  0  0  0  0  0  0  0
   -3.9499    1.0687   -1.6548 H   0  0  0  0  0  0  0  0  0  0  0  0
   -5.4653    2.8091   -2.4467 H   0  0  0  0  0  0  0  0  0  0  0  0
   -7.3194    3.6192   -1.0029 H   0  0  0  0  0  0  0  0  0  0  0  0
   -7.6248    2.6395    1.2643 H   0  0  0  0  0  0  0  0  0  0  0  0
   -6.0998    0.8963    2.0814 H   0  0  0  0  0  0  0  0  0  0  0  0
    0.3826   -0.3320    1.3413 H   0  0  0  0  0  0  0  0  0  0  0  0
  1  2  1  0
  2  3  2  0
  2  4  1  0
  4  5  1  0
  5  6  1  0
  6  7  1  0
  7  8  1  0
  8  9  2  0
  8 10  1  0
 10 11  1  0
 11 12  1  0
 12 13  2  0
 13 14  1  0
 14 15  1  0
 15 16  1  0
 16 17  2  0
 17 18  1  0
 18 19  1  0
 19 20  2  0
 20 21  1  0
 21 22  2  0
 22 23  1  0
 23 24  2  0
 15 25  1  0
 25 26  2  0
 25 27  1  0
 27 12  1  0
 18 14  1  0
 24 19  1  0
  1 28  1  0
  4 29  1  0
  4 30  1  0
  5 31  1  0
  5 32  1  0
  6 33  1  0
  6 34  1  0
  7 35  1  0
 10 36  1  0
 11 37  1  0
 11 38  1  0
 14 39  1  0
 15 40  1  0
 16 41  1  0
 20 42  1  0
 21 43  1  0
 22 44  1  0
 23 45  1  0
 24 46  1  0
 27 47  1  0
M  END
>  <Unnamed: 0>  (113) 
747

>  <ID>  (113) 
TRAIN_0747

>  <Canonical_Smiles>  (113) 
OC(=O)CCCNC(=O)NCC1=NC2C(C=NN2c3ccccc3)C(=O)N1

>  <Inhibition>  (113) 
37.2331

>  <TDC_conf_true_inhibitor>  (113) 
0

>  <TDC_conf_non_inhibitor>  (113) 
1

>  <split>  (113) 
1

$$$$
113
     RDKit          3D

 45 48  0  0  0  0  0  0  0  0999 V2000
    3.5337   -1.4648    0.3391 O   0  0  0  0  0  0  0  0  0  0  0  0
    3.6929   -0.1216   -0.1600 C   0  0  0  0  0  0  0  0  0  0  0  0
    2.4754    0.2102   -1.0488 C   0  0  0  0  0  0  0  0  0  0  0  0
    1.1960   -0.0542   -0.3436 N   0  0  0  0  0  0  0  0  0  0  0  0
    0.2260   -0.6911   -1.2488 C   0  0  0  0  0  0  0  0  0  0  0  0
   -1.0753   -1.0342   -0.5229 C   0  0  0  0  0  0  0  0  0  0  0  0
   -1.6897    0.2103    0.1233 C   0  0  0  0  0  0  0  0  0  0  0  0
   -0.6447    0.8925    1.0145 C   0  0  0  0  0  0  0  0  0  0  0  0
    0.6344    1.1811    0.2297 C   0  0  0  0  0  0  0  0  0  0  0  0
   -2.9259   -0.1404    0.8926 C   0  0  0  0  0  0  0  0  0  0  0  0
   -2.9919   -0.4468    2.1749 N   0  0  0  0  0  0  0  0  0  0  0  0
   -4.3037   -0.7014    2.4981 N   0  0  0  0  0  0  0  0  0  0  0  0
   -5.0207   -0.5557    1.4073 C   0  0  0  0  0  0  0  0  0  0  0  0
   -6.4108   -0.6917    1.1428 C   0  0  0  0  0  0  0  0  0  0  0  0
   -6.8735   -0.4813   -0.1052 C   0  0  0  0  0  0  0  0  0  0  0  0
   -5.9803   -0.1179   -1.1953 C   0  0  0  0  0  0  0  0  0  0  0  0
   -4.6655    0.0130   -0.9461 C   0  0  0  0  0  0  0  0  0  0  0  0
   -4.1942   -0.2028    0.3498 N   0  0  0  0  0  0  0  0  0  0  0  0
    5.0170   -0.0435   -0.9137 C   0  0  0  0  0  0  0  0  0  0  0  0
    6.0423    0.3802    0.1362 C   0  0  0  0  0  0  0  0  0  0  0  0
    5.3253    0.5567    1.4076 N   0  0  0  0  0  0  0  0  0  0  0  0
    3.9264    0.8248    1.0164 C   0  0  0  0  0  0  0  0  0  0  0  0
    2.5905   -1.5146    0.5999 H   0  0  0  0  0  0  0  0  0  0  0  0
    2.5442   -0.4465   -1.9272 H   0  0  0  0  0  0  0  0  0  0  0  0
    2.5260    1.2372   -1.4323 H   0  0  0  0  0  0  0  0  0  0  0  0
    0.0124   -0.0432   -2.1088 H   0  0  0  0  0  0  0  0  0  0  0  0
    0.6446   -1.6263   -1.6397 H   0  0  0  0  0  0  0  0  0  0  0  0
   -0.8776   -1.7997    0.2396 H   0  0  0  0  0  0  0  0  0  0  0  0
   -1.7795   -1.4814   -1.2353 H   0  0  0  0  0  0  0  0  0  0  0  0
   -1.9559    0.9222   -0.6696 H   0  0  0  0  0  0  0  0  0  0  0  0
   -0.4023    0.2605    1.8798 H   0  0  0  0  0  0  0  0  0  0  0  0
   -1.0469    1.8313    1.4157 H   0  0  0  0  0  0  0  0  0  0  0  0
    0.4230    1.9141   -0.5600 H   0  0  0  0  0  0  0  0  0  0  0  0
    1.3485    1.6472    0.9150 H   0  0  0  0  0  0  0  0  0  0  0  0
   -7.0709   -0.9640    1.9584 H   0  0  0  0  0  0  0  0  0  0  0  0
   -7.9324   -0.5800   -0.3267 H   0  0  0  0  0  0  0  0  0  0  0  0
   -6.3976    0.0378   -2.1847 H   0  0  0  0  0  0  0  0  0  0  0  0
   -3.9501    0.2785   -1.7125 H   0  0  0  0  0  0  0  0  0  0  0  0
    4.9802    0.7154   -1.7046 H   0  0  0  0  0  0  0  0  0  0  0  0
    5.2906   -1.0034   -1.3639 H   0  0  0  0  0  0  0  0  0  0  0  0
    6.8361   -0.3662    0.2454 H   0  0  0  0  0  0  0  0  0  0  0  0
    6.5160    1.3242   -0.1542 H   0  0  0  0  0  0  0  0  0  0  0  0
    5.3164   -0.3599    1.8679 H   0  0  0  0  0  0  0  0  0  0  0  0
    3.8245    1.8765    0.7254 H   0  0  0  0  0  0  0  0  0  0  0  0
    3.2669    0.6190    1.8653 H   0  0  0  0  0  0  0  0  0  0  0  0
  1  2  1  0
  2  3  1  0
  3  4  1  0
  4  5  1  0
  5  6  1  0
  6  7  1  0
  7  8  1  0
  8  9  1  0
  7 10  1  0
 10 11  2  0
 11 12  1  0
 12 13  2  0
 13 14  1  0
 14 15  2  0
 15 16  1  0
 16 17  2  0
 17 18  1  0
  2 19  1  0
 19 20  1  0
 20 21  1  0
 21 22  1  0
 22  2  1  0
  9  4  1  0
 18 10  1  0
 18 13  1  0
  1 23  1  0
  3 24  1  0
  3 25  1  0
  5 26  1  0
  5 27  1  0
  6 28  1  0
  6 29  1  0
  7 30  1  0
  8 31  1  0
  8 32  1  0
  9 33  1  0
  9 34  1  0
 14 35  1  0
 15 36  1  0
 16 37  1  0
 17 38  1  0
 19 39  1  0
 19 40  1  0
 20 41  1  0
 20 42  1  0
 21 43  1  0
 22 44  1  0
 22 45  1  0
M  END
>  <Unnamed: 0>  (114) 
748

>  <ID>  (114) 
TRAIN_0748

>  <Canonical_Smiles>  (114) 
OC1(CN2CCC(CC2)c3nnc4ccccn34)CCNC1

>  <Inhibition>  (114) 
18.828067

>  <TDC_conf_true_inhibitor>  (114) 
0

>  <TDC_conf_non_inhibitor>  (114) 
1

>  <split>  (114) 
1

$$$$
114
     RDKit          3D

 35 37  0  0  0  0  0  0  0  0999 V2000
   -4.8858    1.3432    1.1414 N   0  0  0  0  0  0  0  0  0  0  0  0
   -3.7398    1.6496    0.4568 C   0  0  0  0  0  0  0  0  0  0  0  0
   -3.3790    2.8161    0.3392 O   0  0  0  0  0  0  0  0  0  0  0  0
   -2.9928    0.4509   -0.1543 C   0  0  0  0  0  0  0  0  0  0  0  0
   -1.5111    0.5394    0.2737 C   0  0  0  0  0  0  0  0  0  0  0  0
   -0.7314   -0.6518   -0.1733 N   0  0  0  0  0  0  0  0  0  0  0  0
   -1.3875   -1.9157    0.2349 C   0  0  0  0  0  0  0  0  0  0  0  0
   -2.8506   -1.9578   -0.2502 C   0  0  0  0  0  0  0  0  0  0  0  0
   -3.6675   -0.8320    0.2379 N   0  0  0  0  0  0  0  0  0  0  0  0
    0.6707   -0.5427   -0.2379 C   0  0  0  0  0  0  0  0  0  0  0  0
    1.4045   -1.5246   -0.7868 C   0  0  0  0  0  0  0  0  0  0  0  0
    2.8679   -1.4162   -0.8732 C   0  0  0  0  0  0  0  0  0  0  0  0
    3.5019   -2.3492   -1.3665 O   0  0  0  0  0  0  0  0  0  0  0  0
    3.4120   -0.2483   -0.3797 N   0  0  0  0  0  0  0  0  0  0  0  0
    4.7873   -0.0549   -0.4250 C   0  0  0  0  0  0  0  0  0  0  0  0
    5.3556    1.0642    0.0408 C   0  0  0  0  0  0  0  0  0  0  0  0
    4.5345    2.1027    0.6046 C   0  0  0  0  0  0  0  0  0  0  0  0
    3.2055    1.9566    0.6680 C   0  0  0  0  0  0  0  0  0  0  0  0
    2.5681    0.7108    0.1528 C   0  0  0  0  0  0  0  0  0  0  0  0
    1.2805    0.5953    0.2311 N   0  0  0  0  0  0  0  0  0  0  0  0
   -5.3012    2.0946    1.6753 H   0  0  0  0  0  0  0  0  0  0  0  0
   -4.9420    0.4019    1.5176 H   0  0  0  0  0  0  0  0  0  0  0  0
   -3.0661    0.5503   -1.2453 H   0  0  0  0  0  0  0  0  0  0  0  0
   -1.4315    0.6322    1.3652 H   0  0  0  0  0  0  0  0  0  0  0  0
   -1.0846    1.4512   -0.1643 H   0  0  0  0  0  0  0  0  0  0  0  0
   -1.3507   -2.0051    1.3281 H   0  0  0  0  0  0  0  0  0  0  0  0
   -0.8768   -2.7905   -0.1792 H   0  0  0  0  0  0  0  0  0  0  0  0
   -2.8713   -1.9705   -1.3474 H   0  0  0  0  0  0  0  0  0  0  0  0
   -3.3118   -2.8912    0.0904 H   0  0  0  0  0  0  0  0  0  0  0  0
   -4.5672   -0.8569   -0.2460 H   0  0  0  0  0  0  0  0  0  0  0  0
    0.9798   -2.4209   -1.2124 H   0  0  0  0  0  0  0  0  0  0  0  0
    5.3836   -0.8544   -0.8575 H   0  0  0  0  0  0  0  0  0  0  0  0
    6.4303    1.2083    0.0013 H   0  0  0  0  0  0  0  0  0  0  0  0
    5.0158    3.0025    0.9735 H   0  0  0  0  0  0  0  0  0  0  0  0
    2.5508    2.7129    1.0825 H   0  0  0  0  0  0  0  0  0  0  0  0
  1  2  1  0
  2  3  2  0
  2  4  1  0
  4  5  1  0
  5  6  1  0
  6  7  1  0
  7  8  1  0
  8  9  1  0
  6 10  1  0
 10 11  2  0
 11 12  1  0
 12 13  2  0
 12 14  1  0
 14 15  1  0
 15 16  2  0
 16 17  1  0
 17 18  2  0
 18 19  1  0
 19 20  2  0
  9  4  1  0
 20 10  1  0
 19 14  1  0
  1 21  1  0
  1 22  1  0
  4 23  1  0
  5 24  1  0
  5 25  1  0
  7 26  1  0
  7 27  1  0
  8 28  1  0
  8 29  1  0
  9 30  1  0
 11 31  1  0
 15 32  1  0
 16 33  1  0
 17 34  1  0
 18 35  1  0
M  END
>  <Unnamed: 0>  (115) 
750

>  <ID>  (115) 
TRAIN_0750

>  <Canonical_Smiles>  (115) 
NC(=O)C1CN(CCN1)C2=CC(=O)N3C=CC=CC3=N2

>  <Inhibition>  (115) 
18.395497

>  <TDC_conf_true_inhibitor>  (115) 
0

>  <TDC_conf_non_inhibitor>  (115) 
1

>  <split>  (115) 
1

$$$$
115
     RDKit          3D

 45 47  0  0  0  0  0  0  0  0999 V2000
   -4.1774    0.8384   -2.0348 C   0  0  0  0  0  0  0  0  0  0  0  0
   -4.9105    0.9540   -0.7090 C   0  0  0  0  0  0  0  0  0  0  0  0
   -4.2760    0.1925    0.3172 O   0  0  0  0  0  0  0  0  0  0  0  0
   -3.1184    0.8252    0.8577 C   0  0  0  0  0  0  0  0  0  0  0  0
   -2.5860   -0.0496    1.9682 C   0  0  0  0  0  0  0  0  0  0  0  0
   -2.8808    0.2982    3.3003 C   0  0  0  0  0  0  0  0  0  0  0  0
   -2.4357   -0.4876    4.3640 C   0  0  0  0  0  0  0  0  0  0  0  0
   -1.6914   -1.6348    4.1136 C   0  0  0  0  0  0  0  0  0  0  0  0
   -1.4002   -2.0021    2.7993 C   0  0  0  0  0  0  0  0  0  0  0  0
   -1.8488   -1.2278    1.7127 C   0  0  0  0  0  0  0  0  0  0  0  0
   -1.4881   -1.6700    0.3122 C   0  0  0  0  0  0  0  0  0  0  0  0
   -0.1533   -1.2211   -0.0248 N   0  0  0  0  0  0  0  0  0  0  0  0
    0.1041   -0.4277   -1.1120 C   0  0  0  0  0  0  0  0  0  0  0  0
   -0.7525   -0.0378   -1.9020 O   0  0  0  0  0  0  0  0  0  0  0  0
    1.5282    0.0340   -1.2676 C   0  0  0  0  0  0  0  0  0  0  0  0
    2.5831   -0.6677   -0.8180 C   0  0  0  0  0  0  0  0  0  0  0  0
    3.9374   -0.1505   -1.0370 C   0  0  0  0  0  0  0  0  0  0  0  0
    5.0598   -0.8483   -0.5723 C   0  0  0  0  0  0  0  0  0  0  0  0
    6.3431   -0.3407   -0.7937 C   0  0  0  0  0  0  0  0  0  0  0  0
    6.5145    0.8643   -1.4786 C   0  0  0  0  0  0  0  0  0  0  0  0
    5.4031    1.5673   -1.9478 C   0  0  0  0  0  0  0  0  0  0  0  0
    4.1199    1.0584   -1.7271 C   0  0  0  0  0  0  0  0  0  0  0  0
    2.9258    1.7872   -2.2294 C   0  0  0  0  0  0  0  0  0  0  0  0
    3.0274    2.8394   -2.8480 O   0  0  0  0  0  0  0  0  0  0  0  0
    1.7092    1.2113   -1.9593 N   0  0  0  0  0  0  0  0  0  0  0  0
   -4.0160   -0.2147   -2.2961 H   0  0  0  0  0  0  0  0  0  0  0  0
   -4.7520    1.3172   -2.8339 H   0  0  0  0  0  0  0  0  0  0  0  0
   -3.1996    1.3212   -1.9893 H   0  0  0  0  0  0  0  0  0  0  0  0
   -5.9180    0.5383   -0.8312 H   0  0  0  0  0  0  0  0  0  0  0  0
   -5.0251    2.0006   -0.4019 H   0  0  0  0  0  0  0  0  0  0  0  0
   -3.3872    1.8141    1.2512 H   0  0  0  0  0  0  0  0  0  0  0  0
   -2.3530    0.9761    0.0932 H   0  0  0  0  0  0  0  0  0  0  0  0
   -3.4775    1.1830    3.5153 H   0  0  0  0  0  0  0  0  0  0  0  0
   -2.6778   -0.2057    5.3865 H   0  0  0  0  0  0  0  0  0  0  0  0
   -1.3460   -2.2484    4.9408 H   0  0  0  0  0  0  0  0  0  0  0  0
   -0.8271   -2.9115    2.6236 H   0  0  0  0  0  0  0  0  0  0  0  0
   -2.2203   -1.3409   -0.4310 H   0  0  0  0  0  0  0  0  0  0  0  0
   -1.4764   -2.7660    0.2661 H   0  0  0  0  0  0  0  0  0  0  0  0
    0.5599   -1.3588    0.6764 H   0  0  0  0  0  0  0  0  0  0  0  0
    2.4827   -1.6244   -0.3184 H   0  0  0  0  0  0  0  0  0  0  0  0
    4.9509   -1.7901   -0.0383 H   0  0  0  0  0  0  0  0  0  0  0  0
    7.2132   -0.8888   -0.4332 H   0  0  0  0  0  0  0  0  0  0  0  0
    7.5145    1.2551   -1.6501 H   0  0  0  0  0  0  0  0  0  0  0  0
    5.5354    2.5042   -2.4854 H   0  0  0  0  0  0  0  0  0  0  0  0
    0.8829    1.6761   -2.3281 H   0  0  0  0  0  0  0  0  0  0  0  0
  1  2  1  0
  2  3  1  0
  3  4  1  0
  4  5  1  0
  5  6  2  0
  6  7  1  0
  7  8  2  0
  8  9  1  0
  9 10  2  0
 10 11  1  0
 11 12  1  0
 12 13  1  0
 13 14  2  0
 13 15  1  0
 15 16  2  0
 16 17  1  0
 17 18  2  0
 18 19  1  0
 19 20  2  0
 20 21  1  0
 21 22  2  0
 22 23  1  0
 23 24  2  0
 23 25  1  0
 10  5  1  0
 25 15  1  0
 22 17  1  0
  1 26  1  0
  1 27  1  0
  1 28  1  0
  2 29  1  0
  2 30  1  0
  4 31  1  0
  4 32  1  0
  6 33  1  0
  7 34  1  0
  8 35  1  0
  9 36  1  0
 11 37  1  0
 11 38  1  0
 12 39  1  0
 16 40  1  0
 18 41  1  0
 19 42  1  0
 20 43  1  0
 21 44  1  0
 25 45  1  0
M  END
>  <Unnamed: 0>  (116) 
758

>  <ID>  (116) 
TRAIN_0758

>  <Canonical_Smiles>  (116) 
CCOCc1ccccc1CNC(=O)C2=Cc3ccccc3C(=O)N2

>  <Inhibition>  (116) 
0.5

>  <TDC_conf_true_inhibitor>  (116) 
0

>  <TDC_conf_non_inhibitor>  (116) 
1

>  <split>  (116) 
1

$$$$
116
     RDKit          3D

 41 44  0  0  0  0  0  0  0  0999 V2000
   -4.2815    2.7555   -0.2813 Cl  0  0  0  0  0  0  0  0  0  0  0  0
   -4.1257    1.1026   -0.7924 C   0  0  0  0  0  0  0  0  0  0  0  0
   -3.1201    0.2912   -0.3945 C   0  0  0  0  0  0  0  0  0  0  0  0
   -3.2543   -1.0951   -0.9595 C   0  0  0  0  0  0  0  0  0  0  0  0
   -4.2074   -1.5713   -1.6956 N   0  0  0  0  0  0  0  0  0  0  0  0
   -5.1985   -0.7066   -2.0148 N   0  0  0  0  0  0  0  0  0  0  0  0
   -5.2398    0.6190   -1.6671 C   0  0  0  0  0  0  0  0  0  0  0  0
   -6.1546    1.3442   -2.0551 O   0  0  0  0  0  0  0  0  0  0  0  0
   -1.9993    0.5483    0.4215 N   0  0  0  0  0  0  0  0  0  0  0  0
   -1.3925    1.8928    0.5744 C   0  0  0  0  0  0  0  0  0  0  0  0
    0.0971    1.8062    0.9810 C   0  0  0  0  0  0  0  0  0  0  0  0
    0.2780    1.1500    2.2846 N   0  0  0  0  0  0  0  0  0  0  0  0
    1.6757    0.8916    2.6405 C   0  0  0  0  0  0  0  0  0  0  0  0
    2.3232   -0.2241    1.8638 C   0  0  0  0  0  0  0  0  0  0  0  0
    2.6401   -1.4815    2.3482 C   0  0  0  0  0  0  0  0  0  0  0  0
    3.4524   -2.3943    1.1461 S   0  0  0  0  0  0  0  0  0  0  0  0
    3.3021   -1.0793    0.0547 C   0  0  0  0  0  0  0  0  0  0  0  0
    2.7042   -0.0115    0.5429 N   0  0  0  0  0  0  0  0  0  0  0  0
    3.8119   -1.1091   -1.4373 C   0  0  0  0  0  0  0  0  0  0  0  0
    3.6351   -0.0301   -2.3542 C   0  0  0  0  0  0  0  0  0  0  0  0
    4.1323   -0.3266   -3.6080 C   0  0  0  0  0  0  0  0  0  0  0  0
    4.8447   -1.8832   -3.6613 S   0  0  0  0  0  0  0  0  0  0  0  0
    4.4783   -2.1701   -2.0113 C   0  0  0  0  0  0  0  0  0  0  0  0
   -0.6535    0.0341    2.4897 C   0  0  0  0  0  0  0  0  0  0  0  0
   -1.3213   -0.5144    1.2057 C   0  0  0  0  0  0  0  0  0  0  0  0
   -2.4310   -1.7861   -0.7264 H   0  0  0  0  0  0  0  0  0  0  0  0
   -5.9408   -1.0566   -2.6144 H   0  0  0  0  0  0  0  0  0  0  0  0
   -1.4459    2.4455   -0.3724 H   0  0  0  0  0  0  0  0  0  0  0  0
   -1.9451    2.4588    1.3375 H   0  0  0  0  0  0  0  0  0  0  0  0
    0.6273    1.2732    0.1837 H   0  0  0  0  0  0  0  0  0  0  0  0
    0.5080    2.8209    1.0288 H   0  0  0  0  0  0  0  0  0  0  0  0
    2.2705    1.8070    2.5074 H   0  0  0  0  0  0  0  0  0  0  0  0
    1.7273    0.6670    3.7126 H   0  0  0  0  0  0  0  0  0  0  0  0
    2.4561   -1.8871    3.3335 H   0  0  0  0  0  0  0  0  0  0  0  0
    3.1430    0.9041   -2.1103 H   0  0  0  0  0  0  0  0  0  0  0  0
    4.1099    0.2922   -4.4956 H   0  0  0  0  0  0  0  0  0  0  0  0
    4.7666   -3.1080   -1.5599 H   0  0  0  0  0  0  0  0  0  0  0  0
   -1.4522    0.4076    3.1477 H   0  0  0  0  0  0  0  0  0  0  0  0
   -0.1907   -0.7954    3.0399 H   0  0  0  0  0  0  0  0  0  0  0  0
   -0.5737   -1.0118    0.5758 H   0  0  0  0  0  0  0  0  0  0  0  0
   -2.0558   -1.2694    1.5220 H   0  0  0  0  0  0  0  0  0  0  0  0
  1  2  1  0
  2  3  2  0
  3  4  1  0
  4  5  2  0
  5  6  1  0
  6  7  1  0
  7  8  2  0
  3  9  1  0
  9 10  1  0
 10 11  1  0
 11 12  1  0
 12 13  1  0
 13 14  1  0
 14 15  2  0
 15 16  1  0
 16 17  1  0
 17 18  2  0
 17 19  1  0
 19 20  1  0
 20 21  2  0
 21 22  1  0
 22 23  1  0
 12 24  1  0
 24 25  1  0
  7  2  1  0
 25  9  1  0
 18 14  1  0
 23 19  2  0
  4 26  1  0
  6 27  1  0
 10 28  1  0
 10 29  1  0
 11 30  1  0
 11 31  1  0
 13 32  1  0
 13 33  1  0
 15 34  1  0
 20 35  1  0
 21 36  1  0
 23 37  1  0
 24 38  1  0
 24 39  1  0
 25 40  1  0
 25 41  1  0
M  END
>  <Unnamed: 0>  (117) 
759

>  <ID>  (117) 
TRAIN_0759

>  <Canonical_Smiles>  (117) 
ClC1=C(C=NNC1=O)N2CCN(Cc3csc(n3)c4ccsc4)CC2

>  <Inhibition>  (117) 
28.582596

>  <TDC_conf_true_inhibitor>  (117) 
1

>  <TDC_conf_non_inhibitor>  (117) 
0

>  <split>  (117) 
1

$$$$
117
     RDKit          3D

 39 41  0  0  0  0  0  0  0  0999 V2000
    1.5877   -1.3264   -0.1660 O   0  0  0  0  0  0  0  0  0  0  0  0
    1.4454    0.0184   -0.4860 C   0  0  0  0  0  0  0  0  0  0  0  0
    0.2426    0.5069   -0.8918 C   0  0  0  0  0  0  0  0  0  0  0  0
    0.1079    1.8740   -1.2719 C   0  0  0  0  0  0  0  0  0  0  0  0
    0.0003    2.9991   -1.5363 N   0  0  0  0  0  0  0  0  0  0  0  0
   -0.8616   -0.3830   -1.0146 C   0  0  0  0  0  0  0  0  0  0  0  0
   -0.8652   -1.5692   -1.5936 N   0  0  0  0  0  0  0  0  0  0  0  0
   -2.0958   -2.1298   -1.4337 N   0  0  0  0  0  0  0  0  0  0  0  0
   -2.8388   -1.3075   -0.7249 C   0  0  0  0  0  0  0  0  0  0  0  0
   -4.2515   -1.5782   -0.3281 C   0  0  0  0  0  0  0  0  0  0  0  0
   -4.5667   -1.1777    1.1068 C   0  0  0  0  0  0  0  0  0  0  0  0
   -4.8580    0.3136    1.2694 C   0  0  0  0  0  0  0  0  0  0  0  0
   -3.9668    1.2502    0.4549 C   0  0  0  0  0  0  0  0  0  0  0  0
   -2.4875    0.8776    0.4919 C   0  0  0  0  0  0  0  0  0  0  0  0
   -2.0951   -0.1865   -0.4155 N   0  0  0  0  0  0  0  0  0  0  0  0
    2.5773    0.7974   -0.2973 N   0  0  0  0  0  0  0  0  0  0  0  0
    3.9298    0.4423   -0.1151 C   0  0  0  0  0  0  0  0  0  0  0  0
    4.8135    1.4339    0.3496 C   0  0  0  0  0  0  0  0  0  0  0  0
    6.1626    1.1545    0.5932 C   0  0  0  0  0  0  0  0  0  0  0  0
    6.6475   -0.1309    0.3830 C   0  0  0  0  0  0  0  0  0  0  0  0
    8.3043   -0.4827    0.6805 Cl  0  0  0  0  0  0  0  0  0  0  0  0
    5.7938   -1.1323   -0.0653 C   0  0  0  0  0  0  0  0  0  0  0  0
    4.4440   -0.8449   -0.3061 C   0  0  0  0  0  0  0  0  0  0  0  0
    0.8581   -1.8406   -0.5691 H   0  0  0  0  0  0  0  0  0  0  0  0
   -4.4228   -2.6580   -0.4254 H   0  0  0  0  0  0  0  0  0  0  0  0
   -4.9363   -1.0924   -1.0327 H   0  0  0  0  0  0  0  0  0  0  0  0
   -5.4498   -1.7312    1.4494 H   0  0  0  0  0  0  0  0  0  0  0  0
   -3.7457   -1.4704    1.7738 H   0  0  0  0  0  0  0  0  0  0  0  0
   -5.9016    0.5095    0.9926 H   0  0  0  0  0  0  0  0  0  0  0  0
   -4.7754    0.5667    2.3338 H   0  0  0  0  0  0  0  0  0  0  0  0
   -4.0887    2.2616    0.8627 H   0  0  0  0  0  0  0  0  0  0  0  0
   -4.3197    1.2960   -0.5830 H   0  0  0  0  0  0  0  0  0  0  0  0
   -2.1723    0.5756    1.4972 H   0  0  0  0  0  0  0  0  0  0  0  0
   -1.9259    1.7739    0.2271 H   0  0  0  0  0  0  0  0  0  0  0  0
    2.4575    1.7973   -0.4315 H   0  0  0  0  0  0  0  0  0  0  0  0
    4.4543    2.4435    0.5359 H   0  0  0  0  0  0  0  0  0  0  0  0
    6.8211    1.9415    0.9498 H   0  0  0  0  0  0  0  0  0  0  0  0
    6.1634   -2.1405   -0.2315 H   0  0  0  0  0  0  0  0  0  0  0  0
    3.8140   -1.6512   -0.6679 H   0  0  0  0  0  0  0  0  0  0  0  0
  1  2  1  0
  2  3  2  0
  3  4  1  0
  4  5  3  0
  3  6  1  0
  6  7  2  0
  7  8  1  0
  8  9  2  0
  9 10  1  0
 10 11  1  0
 11 12  1  0
 12 13  1  0
 13 14  1  0
 14 15  1  0
  2 16  1  0
 16 17  1  0
 17 18  2  0
 18 19  1  0
 19 20  2  0
 20 21  1  0
 20 22  1  0
 22 23  2  0
 15  6  1  0
 15  9  1  0
 23 17  1  0
  1 24  1  0
 10 25  1  0
 10 26  1  0
 11 27  1  0
 11 28  1  0
 12 29  1  0
 12 30  1  0
 13 31  1  0
 13 32  1  0
 14 33  1  0
 14 34  1  0
 16 35  1  0
 18 36  1  0
 19 37  1  0
 22 38  1  0
 23 39  1  0
M  END
>  <Unnamed: 0>  (118) 
762

>  <ID>  (118) 
TRAIN_0762

>  <Canonical_Smiles>  (118) 
O\C(=C(\C#N)/c1nnc2CCCCCn12)\Nc3ccc(Cl)cc3

>  <Inhibition>  (118) 
4.351754

>  <TDC_conf_true_inhibitor>  (118) 
0

>  <TDC_conf_non_inhibitor>  (118) 
1

>  <split>  (118) 
1

$$$$
118
     RDKit          3D

 49 51  0  0  0  0  0  0  0  0999 V2000
   -3.6503   -1.6448   -0.1592 C   0  0  0  0  0  0  0  0  0  0  0  0
   -4.1349   -0.4355    0.6394 C   0  0  0  0  0  0  0  0  0  0  0  0
   -5.5657   -0.6493    1.1339 C   0  0  0  0  0  0  0  0  0  0  0  0
   -4.0182    0.8113   -0.1707 C   0  0  0  0  0  0  0  0  0  0  0  0
   -4.9171    0.9941   -1.1876 O   0  0  0  0  0  0  0  0  0  0  0  0
   -4.5644    2.1873   -1.7327 C   0  0  0  0  0  0  0  0  0  0  0  0
   -3.5360    2.7763   -1.1671 N   0  0  0  0  0  0  0  0  0  0  0  0
   -3.1618    1.8977   -0.1671 C   0  0  0  0  0  0  0  0  0  0  0  0
   -2.0071    2.1966    0.7181 C   0  0  0  0  0  0  0  0  0  0  0  0
   -0.9361    1.2212    0.5353 N   0  0  0  0  0  0  0  0  0  0  0  0
   -0.7537    0.2787    1.4893 N   0  0  0  0  0  0  0  0  0  0  0  0
    0.2469   -0.4808    1.0268 C   0  0  0  0  0  0  0  0  0  0  0  0
    0.6916   -1.6668    1.8014 C   0  0  0  0  0  0  0  0  0  0  0  0
    0.7473    0.0218   -0.1934 C   0  0  0  0  0  0  0  0  0  0  0  0
   -0.0254    1.1328   -0.4925 C   0  0  0  0  0  0  0  0  0  0  0  0
    0.0253    2.0606   -1.6528 C   0  0  0  0  0  0  0  0  0  0  0  0
    2.0527   -0.6670   -1.0763 S   0  0  0  0  0  6  0  0  0  0  0  0
    2.4622    0.3379   -2.0331 O   0  0  0  0  0  0  0  0  0  0  0  0
    1.5577   -1.9611   -1.4898 O   0  0  0  0  0  0  0  0  0  0  0  0
    3.3531   -0.9118   -0.0060 N   0  0  0  0  0  0  0  0  0  0  0  0
    3.9562    0.3382    0.5628 C   0  0  0  0  0  0  0  0  0  0  0  0
    5.3053    0.6453   -0.0925 C   0  0  0  0  0  0  0  0  0  0  0  0
    6.2773   -0.3890    0.1196 O   0  0  0  0  0  0  0  0  0  0  0  0
    5.7009   -1.6986    0.2274 C   0  0  0  0  0  0  0  0  0  0  0  0
    4.3910   -1.8458   -0.5511 C   0  0  0  0  0  0  0  0  0  0  0  0
   -2.6174   -1.5058   -0.4972 H   0  0  0  0  0  0  0  0  0  0  0  0
   -3.6834   -2.5524    0.4526 H   0  0  0  0  0  0  0  0  0  0  0  0
   -4.2686   -1.8137   -1.0483 H   0  0  0  0  0  0  0  0  0  0  0  0
   -3.4979   -0.3363    1.5261 H   0  0  0  0  0  0  0  0  0  0  0  0
   -5.6249   -1.5344    1.7766 H   0  0  0  0  0  0  0  0  0  0  0  0
   -5.9106    0.2126    1.7164 H   0  0  0  0  0  0  0  0  0  0  0  0
   -6.2664   -0.7907    0.3030 H   0  0  0  0  0  0  0  0  0  0  0  0
   -5.1576    2.5323   -2.5678 H   0  0  0  0  0  0  0  0  0  0  0  0
   -1.5857    3.1869    0.5175 H   0  0  0  0  0  0  0  0  0  0  0  0
   -2.3120    2.1732    1.7704 H   0  0  0  0  0  0  0  0  0  0  0  0
   -0.0436   -1.9404    2.5658 H   0  0  0  0  0  0  0  0  0  0  0  0
    0.8254   -2.5349    1.1493 H   0  0  0  0  0  0  0  0  0  0  0  0
    1.6398   -1.4587    2.3063 H   0  0  0  0  0  0  0  0  0  0  0  0
   -0.7628    2.8163   -1.6338 H   0  0  0  0  0  0  0  0  0  0  0  0
   -0.0776    1.5021   -2.5888 H   0  0  0  0  0  0  0  0  0  0  0  0
    0.9826    2.5920   -1.6690 H   0  0  0  0  0  0  0  0  0  0  0  0
    4.0876    0.1693    1.6384 H   0  0  0  0  0  0  0  0  0  0  0  0
    3.2818    1.1932    0.4539 H   0  0  0  0  0  0  0  0  0  0  0  0
    5.7212    1.5711    0.3171 H   0  0  0  0  0  0  0  0  0  0  0  0
    5.1935    0.7868   -1.1735 H   0  0  0  0  0  0  0  0  0  0  0  0
    5.5431   -1.9082    1.2918 H   0  0  0  0  0  0  0  0  0  0  0  0
    6.4429   -2.4142   -0.1408 H   0  0  0  0  0  0  0  0  0  0  0  0
    4.0223   -2.8725   -0.4589 H   0  0  0  0  0  0  0  0  0  0  0  0
    4.5716   -1.6233   -1.6093 H   0  0  0  0  0  0  0  0  0  0  0  0
  1  2  1  0
  2  3  1  0
  2  4  1  0
  4  5  1  0
  5  6  1  0
  6  7  2  0
  7  8  1  0
  8  9  1  0
  9 10  1  0
 10 11  1  0
 11 12  2  0
 12 13  1  0
 12 14  1  0
 14 15  2  0
 15 16  1  0
 14 17  1  0
 17 18  2  0
 17 19  2  0
 17 20  1  0
 20 21  1  0
 21 22  1  0
 22 23  1  0
 23 24  1  0
 24 25  1  0
  8  4  2  0
 15 10  1  0
 25 20  1  0
  1 26  1  0
  1 27  1  0
  1 28  1  0
  2 29  1  0
  3 30  1  0
  3 31  1  0
  3 32  1  0
  6 33  1  0
  9 34  1  0
  9 35  1  0
 13 36  1  0
 13 37  1  0
 13 38  1  0
 16 39  1  0
 16 40  1  0
 16 41  1  0
 21 42  1  0
 21 43  1  0
 22 44  1  0
 22 45  1  0
 24 46  1  0
 24 47  1  0
 25 48  1  0
 25 49  1  0
M  END
>  <Unnamed: 0>  (119) 
769

>  <ID>  (119) 
TRAIN_0769

>  <Canonical_Smiles>  (119) 
CC(C)c1ocnc1Cn2nc(C)c(c2C)S(=O)(=O)N3CCOCC3

>  <Inhibition>  (119) 
13.688069

>  <TDC_conf_true_inhibitor>  (119) 
0

>  <TDC_conf_non_inhibitor>  (119) 
1

>  <split>  (119) 
1

$$$$
119
     RDKit          3D

 49 51  0  0  0  0  0  0  0  0999 V2000
   -7.1683   -0.3159    2.3258 C   0  0  0  0  0  0  0  0  0  0  0  0
   -6.2495    0.8424    1.9873 C   0  0  0  0  0  0  0  0  0  0  0  0
   -6.0166    0.9513    0.5566 N   0  0  0  0  0  0  0  0  0  0  0  0
   -6.8613    1.7238   -0.1628 N   0  0  0  0  0  0  0  0  0  0  0  0
   -6.3904    1.6440   -1.4063 C   0  0  0  0  0  0  0  0  0  0  0  0
   -5.2341    0.8522   -1.4904 C   0  0  0  0  0  0  0  0  0  0  0  0
   -4.9970    0.4113   -0.2020 C   0  0  0  0  0  0  0  0  0  0  0  0
   -4.0023   -0.4168    0.3773 C   0  0  0  0  0  0  0  0  0  0  0  0
   -2.7780   -0.4993   -0.1645 C   0  0  0  0  0  0  0  0  0  0  0  0
   -1.7577   -1.3733    0.4695 C   0  0  0  0  0  0  0  0  0  0  0  0
   -2.0985   -2.3548    1.1256 O   0  0  0  0  0  0  0  0  0  0  0  0
   -0.4357   -1.0230    0.2654 N   0  0  0  0  0  0  0  0  0  0  0  0
    0.6047   -1.9188    0.7739 C   0  0  0  0  0  0  0  0  0  0  0  0
    1.9514   -1.7549    0.0498 C   0  0  0  0  0  0  0  0  0  0  0  0
    2.4205   -0.3611    0.0441 N   0  0  0  0  0  0  0  0  0  0  0  0
    1.4055    0.6737    0.2977 C   0  0  0  0  0  0  0  0  0  0  0  0
    0.0290    0.2699   -0.2526 C   0  0  0  0  0  0  0  0  0  0  0  0
    3.7409    0.0074   -0.0781 C   0  0  0  0  0  0  0  0  0  0  0  0
    4.1718    1.2181    0.0828 N   0  0  0  0  0  0  0  0  0  0  0  0
    5.6409    1.2774   -0.0455 C   0  0  0  0  0  0  0  0  0  0  0  0
    6.1416    0.1293   -0.9234 C   0  0  0  0  0  0  0  0  0  0  0  0
    7.5593   -0.2980   -0.5553 C   0  0  0  0  0  0  0  0  0  0  0  0
    6.0463    0.4674   -2.4142 C   0  0  0  0  0  0  0  0  0  0  0  0
    4.9531   -1.1834   -0.5201 S   0  0  0  0  0  0  0  0  0  0  0  0
   -6.7293   -1.2714    2.0230 H   0  0  0  0  0  0  0  0  0  0  0  0
   -7.3510   -0.3550    3.4041 H   0  0  0  0  0  0  0  0  0  0  0  0
   -8.1336   -0.2175    1.8183 H   0  0  0  0  0  0  0  0  0  0  0  0
   -5.2831    0.7385    2.4910 H   0  0  0  0  0  0  0  0  0  0  0  0
   -6.6890    1.7896    2.3182 H   0  0  0  0  0  0  0  0  0  0  0  0
   -6.9090    2.1707   -2.1969 H   0  0  0  0  0  0  0  0  0  0  0  0
   -4.6617    0.6193   -2.3761 H   0  0  0  0  0  0  0  0  0  0  0  0
   -4.2283   -0.9831    1.2793 H   0  0  0  0  0  0  0  0  0  0  0  0
   -2.5019    0.0387   -1.0601 H   0  0  0  0  0  0  0  0  0  0  0  0
    0.7226   -1.6968    1.8434 H   0  0  0  0  0  0  0  0  0  0  0  0
    0.2684   -2.9582    0.6932 H   0  0  0  0  0  0  0  0  0  0  0  0
    2.6730   -2.4089    0.5508 H   0  0  0  0  0  0  0  0  0  0  0  0
    1.8495   -2.0913   -0.9892 H   0  0  0  0  0  0  0  0  0  0  0  0
    1.3409    0.8448    1.3801 H   0  0  0  0  0  0  0  0  0  0  0  0
    1.6864    1.6229   -0.1727 H   0  0  0  0  0  0  0  0  0  0  0  0
    0.0767    0.1706   -1.3436 H   0  0  0  0  0  0  0  0  0  0  0  0
   -0.6976    1.0541   -0.0124 H   0  0  0  0  0  0  0  0  0  0  0  0
    5.9277    2.2464   -0.4725 H   0  0  0  0  0  0  0  0  0  0  0  0
    6.0714    1.2396    0.9651 H   0  0  0  0  0  0  0  0  0  0  0  0
    7.6430   -0.5796    0.5000 H   0  0  0  0  0  0  0  0  0  0  0  0
    8.2645    0.5238   -0.7299 H   0  0  0  0  0  0  0  0  0  0  0  0
    7.8907   -1.1499   -1.1596 H   0  0  0  0  0  0  0  0  0  0  0  0
    6.7181    1.2982   -2.6616 H   0  0  0  0  0  0  0  0  0  0  0  0
    5.0358    0.7713   -2.7153 H   0  0  0  0  0  0  0  0  0  0  0  0
    6.3406   -0.3853   -3.0378 H   0  0  0  0  0  0  0  0  0  0  0  0
  1  2  1  0
  2  3  1  0
  3  4  1  0
  4  5  2  0
  5  6  1  0
  6  7  2  0
  7  8  1  0
  8  9  2  0
  9 10  1  0
 10 11  2  0
 10 12  1  0
 12 13  1  0
 13 14  1  0
 14 15  1  0
 15 16  1  0
 16 17  1  0
 15 18  1  0
 18 19  2  0
 19 20  1  0
 20 21  1  0
 21 22  1  0
 21 23  1  0
 21 24  1  0
  7  3  1  0
 17 12  1  0
 24 18  1  0
  1 25  1  0
  1 26  1  0
  1 27  1  0
  2 28  1  0
  2 29  1  0
  5 30  1  0
  6 31  1  0
  8 32  1  0
  9 33  1  0
 13 34  1  0
 13 35  1  0
 14 36  1  0
 14 37  1  0
 16 38  1  0
 16 39  1  0
 17 40  1  0
 17 41  1  0
 20 42  1  0
 20 43  1  0
 22 44  1  0
 22 45  1  0
 22 46  1  0
 23 47  1  0
 23 48  1  0
 23 49  1  0
M  END
>  <Unnamed: 0>  (120) 
779

>  <ID>  (120) 
TRAIN_0779

>  <Canonical_Smiles>  (120) 
CCn1nccc1\C=C\C(=O)N2CCN(CC2)C3=NCC(C)(C)S3

>  <Inhibition>  (120) 
12.114159

>  <TDC_conf_true_inhibitor>  (120) 
0

>  <TDC_conf_non_inhibitor>  (120) 
1

>  <split>  (120) 
1

$$$$
120
     RDKit          3D

 39 43  0  0  0  0  0  0  0  0999 V2000
   -6.7604   -0.9643    2.9773 N   0  0  0  0  0  0  0  0  0  0  0  0
   -5.9911   -0.3921    1.9540 C   0  0  0  0  0  0  0  0  0  0  0  0
   -6.6291    0.1680    0.8347 C   0  0  0  0  0  0  0  0  0  0  0  0
   -5.9118    0.6506   -0.2697 C   0  0  0  0  0  0  0  0  0  0  0  0
   -4.5349    0.4967   -0.2006 C   0  0  0  0  0  0  0  0  0  0  0  0
   -3.6119    0.8703   -1.1313 O   0  0  0  0  0  0  0  0  0  0  0  0
   -2.4066    0.4794   -0.5865 C   0  0  0  0  0  0  0  0  0  0  0  0
   -2.5159   -0.1033    0.5974 N   0  0  0  0  0  0  0  0  0  0  0  0
   -3.8622   -0.0945    0.8529 C   0  0  0  0  0  0  0  0  0  0  0  0
   -4.5982   -0.5738    1.9450 C   0  0  0  0  0  0  0  0  0  0  0  0
   -1.2133    0.7655   -1.3916 C   0  0  0  0  0  0  0  0  0  0  0  0
   -1.2911    1.3575   -2.6501 C   0  0  0  0  0  0  0  0  0  0  0  0
   -0.1164    1.5972   -3.3556 C   0  0  0  0  0  0  0  0  0  0  0  0
    1.1025    1.2410   -2.7876 C   0  0  0  0  0  0  0  0  0  0  0  0
    1.1122    0.6533   -1.5247 C   0  0  0  0  0  0  0  0  0  0  0  0
   -0.0288    0.4154   -0.8296 N   0  0  0  0  0  0  0  0  0  0  0  0
    2.3565    0.2511   -0.8585 C   0  0  0  0  0  0  0  0  0  0  0  0
    3.5181    0.4503   -1.5751 O   0  0  0  0  0  0  0  0  0  0  0  0
    4.5020    0.0007   -0.7461 C   0  0  0  0  0  0  0  0  0  0  0  0
    5.8682   -0.0083   -0.9866 C   0  0  0  0  0  0  0  0  0  0  0  0
    6.6597   -0.5268    0.0487 C   0  0  0  0  0  0  0  0  0  0  0  0
    6.1015   -1.0431    1.2300 C   0  0  0  0  0  0  0  0  0  0  0  0
    6.9427   -1.4405    2.2792 N   0  0  0  0  0  0  0  0  0  0  0  0
    4.7157   -0.9567    1.4428 C   0  0  0  0  0  0  0  0  0  0  0  0
    3.9063   -0.4461    0.4190 C   0  0  0  0  0  0  0  0  0  0  0  0
    2.5484   -0.2803    0.3389 N   0  0  0  0  0  0  0  0  0  0  0  0
   -7.6722   -0.5358    3.1021 H   0  0  0  0  0  0  0  0  0  0  0  0
   -6.2614   -1.0723    3.8558 H   0  0  0  0  0  0  0  0  0  0  0  0
   -7.7153    0.2346    0.8140 H   0  0  0  0  0  0  0  0  0  0  0  0
   -6.3981    1.0974   -1.1269 H   0  0  0  0  0  0  0  0  0  0  0  0
   -4.0827   -1.0677    2.7604 H   0  0  0  0  0  0  0  0  0  0  0  0
   -2.2481    1.6306   -3.0838 H   0  0  0  0  0  0  0  0  0  0  0  0
   -0.1505    2.0574   -4.3394 H   0  0  0  0  0  0  0  0  0  0  0  0
    2.0257    1.4240   -3.3287 H   0  0  0  0  0  0  0  0  0  0  0  0
    6.2929    0.3755   -1.9048 H   0  0  0  0  0  0  0  0  0  0  0  0
    7.7409   -0.5247   -0.0774 H   0  0  0  0  0  0  0  0  0  0  0  0
    7.8484   -1.7867    1.9785 H   0  0  0  0  0  0  0  0  0  0  0  0
    6.4975   -2.0582    2.9520 H   0  0  0  0  0  0  0  0  0  0  0  0
    4.2607   -1.2791    2.3721 H   0  0  0  0  0  0  0  0  0  0  0  0
  1  2  1  0
  2  3  2  0
  3  4  1  0
  4  5  2  0
  5  6  1  0
  6  7  1  0
  7  8  2  0
  8  9  1  0
  9 10  2  0
  7 11  1  0
 11 12  2  0
 12 13  1  0
 13 14  2  0
 14 15  1  0
 15 16  2  0
 15 17  1  0
 17 18  1  0
 18 19  1  0
 19 20  2  0
 20 21  1  0
 21 22  2  0
 22 23  1  0
 22 24  1  0
 24 25  2  0
 25 26  1  0
 10  2  1  0
  9  5  1  0
 16 11  1  0
 26 17  2  0
 25 19  1  0
  1 27  1  0
  1 28  1  0
  3 29  1  0
  4 30  1  0
 10 31  1  0
 12 32  1  0
 13 33  1  0
 14 34  1  0
 20 35  1  0
 21 36  1  0
 23 37  1  0
 23 38  1  0
 24 39  1  0
M  END
>  <Unnamed: 0>  (121) 
780

>  <ID>  (121) 
TRAIN_0780

>  <Canonical_Smiles>  (121) 
Nc1ccc2oc(nc2c1)c3cccc(n3)c4oc5ccc(N)cc5n4

>  <Inhibition>  (121) 
51.941931

>  <TDC_conf_true_inhibitor>  (121) 
1

>  <TDC_conf_non_inhibitor>  (121) 
0

>  <split>  (121) 
1

$$$$
121
     RDKit          3D

 57 60  0  0  0  0  0  0  0  0999 V2000
    6.0958    0.6112   -3.4334 C   0  0  0  0  0  0  0  0  0  0  0  0
    6.1526    1.0164   -1.9728 C   0  0  0  0  0  0  0  0  0  0  0  0
    4.9060    0.7276   -1.3233 O   0  0  0  0  0  0  0  0  0  0  0  0
    4.7780   -0.5256   -0.8137 C   0  0  0  0  0  0  0  0  0  0  0  0
    5.6276   -1.4014   -0.9257 O   0  0  0  0  0  0  0  0  0  0  0  0
    3.5771   -0.7076   -0.1591 N   0  0  0  0  0  0  0  0  0  0  0  0
    2.5785    0.3457    0.0279 C   0  0  0  0  0  0  0  0  0  0  0  0
    1.8656    0.2552    1.3861 C   0  0  0  0  0  0  0  0  0  0  0  0
    1.3796   -1.1151    1.7016 N   0  0  0  0  0  0  0  0  0  0  0  0
    1.7889   -2.1797    0.7587 C   0  0  0  0  0  0  0  0  0  0  0  0
    3.2730   -2.0214    0.4065 C   0  0  0  0  0  0  0  0  0  0  0  0
   -0.0615   -1.2784    2.5675 S   0  0  0  0  0  6  0  0  0  0  0  0
   -0.0289   -0.2581    3.5936 O   0  0  0  0  0  0  0  0  0  0  0  0
   -0.2192   -2.6659    2.9478 O   0  0  0  0  0  0  0  0  0  0  0  0
   -1.3343   -0.8802    1.3751 C   0  0  0  0  0  0  0  0  0  0  0  0
   -2.0488    0.3424    1.3500 C   0  0  0  0  0  0  0  0  0  0  0  0
   -1.8661    1.4255    2.3955 C   0  0  0  0  0  0  0  0  0  0  0  0
   -2.8888    2.5658    2.3307 C   0  0  0  0  0  0  0  0  0  0  0  0
   -3.0630    3.0028    0.9458 N   0  0  0  0  0  0  0  0  0  0  0  0
   -3.8797    4.2145    0.8830 C   0  0  0  0  0  0  0  0  0  0  0  0
   -3.7056    1.9199    0.1822 C   0  0  0  0  0  0  0  0  0  0  0  0
   -2.9798    0.5843    0.2905 C   0  0  0  0  0  0  0  0  0  0  0  0
   -3.2906   -0.4245   -0.6518 C   0  0  0  0  0  0  0  0  0  0  0  0
   -4.2436   -0.0945   -1.5763 O   0  0  0  0  0  0  0  0  0  0  0  0
   -4.6599   -1.0903   -2.5025 C   0  0  0  0  0  0  0  0  0  0  0  0
   -2.6212   -1.6304   -0.5424 C   0  0  0  0  0  0  0  0  0  0  0  0
   -2.7775   -2.7240   -1.3446 O   0  0  0  0  0  0  0  0  0  0  0  0
   -1.8914   -3.6697   -0.7335 C   0  0  0  0  0  0  0  0  0  0  0  0
   -1.1215   -3.0946    0.3293 O   0  0  0  0  0  0  0  0  0  0  0  0
   -1.6669   -1.8472    0.4349 C   0  0  0  0  0  0  0  0  0  0  0  0
    5.9388   -0.4668   -3.5393 H   0  0  0  0  0  0  0  0  0  0  0  0
    7.0264    0.8807   -3.9426 H   0  0  0  0  0  0  0  0  0  0  0  0
    5.2601    1.1075   -3.9391 H   0  0  0  0  0  0  0  0  0  0  0  0
    6.3071    2.0983   -1.8989 H   0  0  0  0  0  0  0  0  0  0  0  0
    6.9930    0.5384   -1.4569 H   0  0  0  0  0  0  0  0  0  0  0  0
    3.0310    1.3369   -0.0786 H   0  0  0  0  0  0  0  0  0  0  0  0
    1.8489    0.2302   -0.7836 H   0  0  0  0  0  0  0  0  0  0  0  0
    2.5659    0.5388    2.1798 H   0  0  0  0  0  0  0  0  0  0  0  0
    1.0468    0.9771    1.3911 H   0  0  0  0  0  0  0  0  0  0  0  0
    1.6406   -3.1672    1.2068 H   0  0  0  0  0  0  0  0  0  0  0  0
    1.1941   -2.1100   -0.1578 H   0  0  0  0  0  0  0  0  0  0  0  0
    3.8905   -2.1329    1.3071 H   0  0  0  0  0  0  0  0  0  0  0  0
    3.5781   -2.7980   -0.3044 H   0  0  0  0  0  0  0  0  0  0  0  0
   -0.8624    1.8509    2.2870 H   0  0  0  0  0  0  0  0  0  0  0  0
   -1.9733    0.9893    3.3936 H   0  0  0  0  0  0  0  0  0  0  0  0
   -2.5211    3.3888    2.9569 H   0  0  0  0  0  0  0  0  0  0  0  0
   -3.8450    2.2382    2.7615 H   0  0  0  0  0  0  0  0  0  0  0  0
   -3.3852    5.0365    1.4122 H   0  0  0  0  0  0  0  0  0  0  0  0
   -4.0070    4.5397   -0.1553 H   0  0  0  0  0  0  0  0  0  0  0  0
   -4.8732    4.0708    1.3243 H   0  0  0  0  0  0  0  0  0  0  0  0
   -4.7422    1.7678    0.5123 H   0  0  0  0  0  0  0  0  0  0  0  0
   -3.7204    2.2258   -0.8713 H   0  0  0  0  0  0  0  0  0  0  0  0
   -3.8406   -1.3719   -3.1708 H   0  0  0  0  0  0  0  0  0  0  0  0
   -5.0883   -1.9569   -1.9865 H   0  0  0  0  0  0  0  0  0  0  0  0
   -5.4510   -0.6555   -3.1213 H   0  0  0  0  0  0  0  0  0  0  0  0
   -2.4801   -4.5050   -0.3371 H   0  0  0  0  0  0  0  0  0  0  0  0
   -1.2056   -4.0547   -1.4961 H   0  0  0  0  0  0  0  0  0  0  0  0
  1  2  1  0
  2  3  1  0
  3  4  1  0
  4  5  2  0
  4  6  1  0
  6  7  1  0
  7  8  1  0
  8  9  1  0
  9 10  1  0
 10 11  1  0
  9 12  1  0
 12 13  2  0
 12 14  2  0
 12 15  1  0
 15 16  2  0
 16 17  1  0
 17 18  1  0
 18 19  1  0
 19 20  1  0
 19 21  1  0
 21 22  1  0
 22 23  2  0
 23 24  1  0
 24 25  1  0
 23 26  1  0
 26 27  1  0
 27 28  1  0
 28 29  1  0
 29 30  1  0
 11  6  1  0
 30 15  1  0
 22 16  1  0
 30 26  2  0
  1 31  1  0
  1 32  1  0
  1 33  1  0
  2 34  1  0
  2 35  1  0
  7 36  1  0
  7 37  1  0
  8 38  1  0
  8 39  1  0
 10 40  1  0
 10 41  1  0
 11 42  1  0
 11 43  1  0
 17 44  1  0
 17 45  1  0
 18 46  1  0
 18 47  1  0
 20 48  1  0
 20 49  1  0
 20 50  1  0
 21 51  1  0
 21 52  1  0
 25 53  1  0
 25 54  1  0
 25 55  1  0
 28 56  1  0
 28 57  1  0
M  END
>  <Unnamed: 0>  (122) 
785

>  <ID>  (122) 
TRAIN_0785

>  <Canonical_Smiles>  (122) 
CCOC(=O)N1CCN(CC1)S(=O)(=O)c2c3CCN(C)Cc3c(OC)c4OCOc24

>  <Inhibition>  (122) 
18.345795

>  <TDC_conf_true_inhibitor>  (122) 
0

>  <TDC_conf_non_inhibitor>  (122) 
1

>  <split>  (122) 
1

$$$$
122
     RDKit          3D

 48 51  0  0  0  0  0  0  0  0999 V2000
    5.8853    0.4788    2.0824 C   0  0  0  0  0  0  0  0  0  0  0  0
    5.4204    0.7760    0.7737 O   0  0  0  0  0  0  0  0  0  0  0  0
    4.2336    0.2129    0.3759 C   0  0  0  0  0  0  0  0  0  0  0  0
    3.5161   -0.7294    1.1194 C   0  0  0  0  0  0  0  0  0  0  0  0
    2.3064   -1.2616    0.6387 C   0  0  0  0  0  0  0  0  0  0  0  0
    1.5741   -2.3022    1.4343 C   0  0  0  0  0  0  0  0  0  0  0  0
    0.1860   -1.8703    1.8583 C   0  0  0  0  0  0  0  0  0  0  0  0
   -0.0658   -1.7128    3.0571 O   0  0  0  0  0  0  0  0  0  0  0  0
   -0.7883   -1.7774    0.8634 N   0  0  0  0  0  0  0  0  0  0  0  0
   -2.1911   -1.7098    1.3059 C   0  0  0  0  0  0  0  0  0  0  0  0
   -2.7755   -0.3199    1.1637 C   0  0  0  0  0  0  0  0  0  0  0  0
   -2.3598    0.6940    2.0448 C   0  0  0  0  0  0  0  0  0  0  0  0
   -2.8613    1.9875    1.9198 C   0  0  0  0  0  0  0  0  0  0  0  0
   -2.3463    3.2160    3.0086 Cl  0  0  0  0  0  0  0  0  0  0  0  0
   -3.7751    2.2960    0.9153 C   0  0  0  0  0  0  0  0  0  0  0  0
   -4.1927    1.3022    0.0208 C   0  0  0  0  0  0  0  0  0  0  0  0
   -5.1733    1.6192   -1.0664 C   0  0  0  0  0  0  0  0  0  0  0  0
   -5.1135    0.6327   -2.0890 O   0  0  0  0  0  0  0  0  0  0  0  0
   -5.2145   -0.6595   -1.5087 C   0  0  0  0  0  0  0  0  0  0  0  0
   -4.1001   -1.0077   -0.6864 O   0  0  0  0  0  0  0  0  0  0  0  0
   -3.7071   -0.0043    0.1610 C   0  0  0  0  0  0  0  0  0  0  0  0
   -0.5585   -1.7284   -0.5048 C   0  0  0  0  0  0  0  0  0  0  0  0
    0.5542   -1.3653   -1.1588 C   0  0  0  0  0  0  0  0  0  0  0  0
    1.8068   -0.8431   -0.5971 C   0  0  0  0  0  0  0  0  0  0  0  0
    2.5366    0.0912   -1.3506 C   0  0  0  0  0  0  0  0  0  0  0  0
    3.7394    0.6264   -0.8736 C   0  0  0  0  0  0  0  0  0  0  0  0
    4.5031    1.5447   -1.5516 O   0  0  0  0  0  0  0  0  0  0  0  0
    3.9616    2.1052   -2.7385 C   0  0  0  0  0  0  0  0  0  0  0  0
    5.1566    0.7818    2.8417 H   0  0  0  0  0  0  0  0  0  0  0  0
    6.8000    1.0557    2.2510 H   0  0  0  0  0  0  0  0  0  0  0  0
    6.1406   -0.5816    2.1779 H   0  0  0  0  0  0  0  0  0  0  0  0
    3.8830   -1.0732    2.0816 H   0  0  0  0  0  0  0  0  0  0  0  0
    2.1338   -2.5490    2.3457 H   0  0  0  0  0  0  0  0  0  0  0  0
    1.5095   -3.2403    0.8687 H   0  0  0  0  0  0  0  0  0  0  0  0
   -2.7645   -2.4549    0.7408 H   0  0  0  0  0  0  0  0  0  0  0  0
   -2.2845   -2.0210    2.3537 H   0  0  0  0  0  0  0  0  0  0  0  0
   -1.6364    0.4692    2.8271 H   0  0  0  0  0  0  0  0  0  0  0  0
   -4.1539    3.3110    0.8226 H   0  0  0  0  0  0  0  0  0  0  0  0
   -4.9365    2.5830   -1.5284 H   0  0  0  0  0  0  0  0  0  0  0  0
   -6.1910    1.6679   -0.6623 H   0  0  0  0  0  0  0  0  0  0  0  0
   -6.1487   -0.7649   -0.9414 H   0  0  0  0  0  0  0  0  0  0  0  0
   -5.2499   -1.3851   -2.3273 H   0  0  0  0  0  0  0  0  0  0  0  0
   -1.4372   -1.9417   -1.1147 H   0  0  0  0  0  0  0  0  0  0  0  0
    0.5070   -1.3599   -2.2472 H   0  0  0  0  0  0  0  0  0  0  0  0
    2.1417    0.3989   -2.3137 H   0  0  0  0  0  0  0  0  0  0  0  0
    3.8649    1.3468   -3.5222 H   0  0  0  0  0  0  0  0  0  0  0  0
    4.6609    2.8664   -3.0982 H   0  0  0  0  0  0  0  0  0  0  0  0
    3.0040    2.5995   -2.5442 H   0  0  0  0  0  0  0  0  0  0  0  0
  1  2  1  0
  2  3  1  0
  3  4  2  0
  4  5  1  0
  5  6  1  0
  6  7  1  0
  7  8  2  0
  7  9  1  0
  9 10  1  0
 10 11  1  0
 11 12  2  0
 12 13  1  0
 13 14  1  0
 13 15  2  0
 15 16  1  0
 16 17  1  0
 17 18  1  0
 18 19  1  0
 19 20  1  0
 20 21  1  0
  9 22  1  0
 22 23  2  0
 23 24  1  0
 24 25  1  0
 25 26  2  0
 26 27  1  0
 27 28  1  0
 26  3  1  0
 24  5  2  0
 21 11  1  0
 21 16  2  0
  1 29  1  0
  1 30  1  0
  1 31  1  0
  4 32  1  0
  6 33  1  0
  6 34  1  0
 10 35  1  0
 10 36  1  0
 12 37  1  0
 15 38  1  0
 17 39  1  0
 17 40  1  0
 19 41  1  0
 19 42  1  0
 22 43  1  0
 23 44  1  0
 25 45  1  0
 28 46  1  0
 28 47  1  0
 28 48  1  0
M  END
>  <Unnamed: 0>  (123) 
794

>  <ID>  (123) 
TRAIN_0794

>  <Canonical_Smiles>  (123) 
COc1cc2CC(=O)N(Cc3cc(Cl)cc4COCOc34)C=Cc2cc1OC

>  <Inhibition>  (123) 
23.428272

>  <TDC_conf_true_inhibitor>  (123) 
1

>  <TDC_conf_non_inhibitor>  (123) 
0

>  <split>  (123) 
1

$$$$
123
     RDKit          3D

 50 52  0  0  0  0  0  0  0  0999 V2000
   -7.1915   -1.1889    0.3935 C   0  0  0  0  0  0  0  0  0  0  0  0
   -6.1453   -0.1658    0.3295 N   0  0  0  0  0  0  0  0  0  0  0  0
   -6.4786    0.9327    1.2413 C   0  0  0  0  0  0  0  0  0  0  0  0
   -4.8136   -0.7081    0.6575 C   0  0  0  0  0  0  0  0  0  0  0  0
   -4.2670   -1.6517   -0.4212 C   0  0  0  0  0  0  0  0  0  0  0  0
   -2.8748   -2.2109   -0.0948 C   0  0  0  0  0  0  0  0  0  0  0  0
   -1.8103   -1.2120   -0.1107 N   0  0  0  0  0  0  0  0  0  0  0  0
   -1.3281   -0.8637    1.2204 C   0  0  0  0  0  0  0  0  0  0  0  0
   -0.3341    0.2725    1.1551 C   0  0  0  0  0  0  0  0  0  0  0  0
   -0.6326    1.5185    1.7267 C   0  0  0  0  0  0  0  0  0  0  0  0
    0.2913    2.5636    1.6723 C   0  0  0  0  0  0  0  0  0  0  0  0
    1.5198    2.3770    1.0398 C   0  0  0  0  0  0  0  0  0  0  0  0
    1.8167    1.1510    0.4451 C   0  0  0  0  0  0  0  0  0  0  0  0
    3.0600    1.0182   -0.1212 O   0  0  0  0  0  0  0  0  0  0  0  0
    3.2090    0.5133   -1.3439 C   0  0  0  0  0  0  0  0  0  0  0  0
    2.2512    0.2772   -2.2156 N   0  0  0  0  0  0  0  0  0  0  0  0
    2.8677   -0.1989   -3.3379 N   0  0  0  0  0  0  0  0  0  0  0  0
    4.1814   -0.2442   -3.1791 N   0  0  0  0  0  0  0  0  0  0  0  0
    4.4318    0.2015   -1.9189 N   0  0  0  0  0  0  0  0  0  0  0  0
    5.7587    0.2764   -1.4138 C   0  0  0  0  0  0  0  0  0  0  0  0
    6.0347    0.7014   -0.1074 C   0  0  0  0  0  0  0  0  0  0  0  0
    7.3559    0.7561    0.3494 C   0  0  0  0  0  0  0  0  0  0  0  0
    8.4077    0.3924   -0.4883 C   0  0  0  0  0  0  0  0  0  0  0  0
    8.1445   -0.0310   -1.7876 C   0  0  0  0  0  0  0  0  0  0  0  0
    6.8278   -0.0916   -2.2502 C   0  0  0  0  0  0  0  0  0  0  0  0
    0.9035    0.0968    0.5149 C   0  0  0  0  0  0  0  0  0  0  0  0
   -8.1720   -0.7486    0.1778 H   0  0  0  0  0  0  0  0  0  0  0  0
   -7.2416   -1.6678    1.3781 H   0  0  0  0  0  0  0  0  0  0  0  0
   -7.0394   -1.9635   -0.3642 H   0  0  0  0  0  0  0  0  0  0  0  0
   -5.7393    1.7379    1.1629 H   0  0  0  0  0  0  0  0  0  0  0  0
   -7.4464    1.3740    0.9766 H   0  0  0  0  0  0  0  0  0  0  0  0
   -6.5226    0.6037    2.2861 H   0  0  0  0  0  0  0  0  0  0  0  0
   -4.1162    0.1336    0.7462 H   0  0  0  0  0  0  0  0  0  0  0  0
   -4.8289   -1.2160    1.6307 H   0  0  0  0  0  0  0  0  0  0  0  0
   -4.2388   -1.1331   -1.3883 H   0  0  0  0  0  0  0  0  0  0  0  0
   -4.9366   -2.5100   -0.5462 H   0  0  0  0  0  0  0  0  0  0  0  0
   -2.9029   -2.7674    0.8501 H   0  0  0  0  0  0  0  0  0  0  0  0
   -2.6295   -2.9479   -0.8688 H   0  0  0  0  0  0  0  0  0  0  0  0
   -2.0972   -0.3728   -0.6144 H   0  0  0  0  0  0  0  0  0  0  0  0
   -0.8346   -1.7271    1.6834 H   0  0  0  0  0  0  0  0  0  0  0  0
   -2.1598   -0.5829    1.8769 H   0  0  0  0  0  0  0  0  0  0  0  0
   -1.5885    1.6832    2.2196 H   0  0  0  0  0  0  0  0  0  0  0  0
    0.0532    3.5249    2.1211 H   0  0  0  0  0  0  0  0  0  0  0  0
    2.2375    3.1914    1.0021 H   0  0  0  0  0  0  0  0  0  0  0  0
    5.2605    0.9924    0.5946 H   0  0  0  0  0  0  0  0  0  0  0  0
    7.5642    1.0846    1.3655 H   0  0  0  0  0  0  0  0  0  0  0  0
    9.4327    0.4385   -0.1281 H   0  0  0  0  0  0  0  0  0  0  0  0
    8.9634   -0.3150   -2.4445 H   0  0  0  0  0  0  0  0  0  0  0  0
    6.6589   -0.4283   -3.2722 H   0  0  0  0  0  0  0  0  0  0  0  0
    1.1383   -0.8657    0.0652 H   0  0  0  0  0  0  0  0  0  0  0  0
  1  2  1  0
  2  3  1  0
  2  4  1  0
  4  5  1  0
  5  6  1  0
  6  7  1  0
  7  8  1  0
  8  9  1  0
  9 10  2  0
 10 11  1  0
 11 12  2  0
 12 13  1  0
 13 14  1  0
 14 15  1  0
 15 16  2  0
 16 17  1  0
 17 18  2  0
 18 19  1  0
 19 20  1  0
 20 21  2  0
 21 22  1  0
 22 23  2  0
 23 24  1  0
 24 25  2  0
 13 26  2  0
 26  9  1  0
 19 15  1  0
 25 20  1  0
  1 27  1  0
  1 28  1  0
  1 29  1  0
  3 30  1  0
  3 31  1  0
  3 32  1  0
  4 33  1  0
  4 34  1  0
  5 35  1  0
  5 36  1  0
  6 37  1  0
  6 38  1  0
  7 39  1  0
  8 40  1  0
  8 41  1  0
 10 42  1  0
 11 43  1  0
 12 44  1  0
 21 45  1  0
 22 46  1  0
 23 47  1  0
 24 48  1  0
 25 49  1  0
 26 50  1  0
M  END
>  <Unnamed: 0>  (124) 
796

>  <ID>  (124) 
TRAIN_0796

>  <Canonical_Smiles>  (124) 
CN(C)CCCNCc1cccc(Oc2nnnn2c3ccccc3)c1

>  <Inhibition>  (124) 
17.062811

>  <TDC_conf_true_inhibitor>  (124) 
0

>  <TDC_conf_non_inhibitor>  (124) 
1

>  <split>  (124) 
1

$$$$
124
     RDKit          3D

 45 47  0  0  0  0  0  0  0  0999 V2000
    7.8694    0.7185    1.7563 C   0  0  0  0  0  0  0  0  0  0  0  0
    7.3703   -0.6666    2.1315 C   0  0  0  0  0  0  0  0  0  0  0  0
    5.9384   -0.6858    2.2315 O   0  0  0  0  0  0  0  0  0  0  0  0
    5.2616   -0.7615    1.0433 C   0  0  0  0  0  0  0  0  0  0  0  0
    5.8073   -0.8217   -0.0528 O   0  0  0  0  0  0  0  0  0  0  0  0
    3.8048   -0.7486    1.2259 C   0  0  0  0  0  0  0  0  0  0  0  0
    3.1556   -0.8843    2.4433 C   0  0  0  0  0  0  0  0  0  0  0  0
    1.4546   -0.8208    2.2290 S   0  0  0  0  0  0  0  0  0  0  0  0
    1.6896   -0.5982    0.5543 C   0  0  0  0  0  0  0  0  0  0  0  0
    2.9357   -0.5907    0.1400 N   0  0  0  0  0  0  0  0  0  0  0  0
    0.5917   -0.4150   -0.3032 N   0  0  0  0  0  0  0  0  0  0  0  0
   -0.6671   -0.4543    0.2162 N   0  0  0  0  0  0  0  0  0  0  0  0
   -1.4914   -0.1860   -0.8079 C   0  0  0  0  0  0  0  0  0  0  0  0
   -0.7587   -0.0235   -2.0043 C   0  0  0  0  0  0  0  0  0  0  0  0
    0.5667   -0.1766   -1.6578 C   0  0  0  0  0  0  0  0  0  0  0  0
    1.7878   -0.1050   -2.4707 C   0  0  0  0  0  0  0  0  0  0  0  0
    1.4829    0.1469   -3.7737 F   0  0  0  0  0  0  0  0  0  0  0  0
    2.4833   -1.2667   -2.4691 F   0  0  0  0  0  0  0  0  0  0  0  0
    2.6103    0.8974   -2.0829 F   0  0  0  0  0  0  0  0  0  0  0  0
   -2.9398   -0.1129   -0.6215 C   0  0  0  0  0  0  0  0  0  0  0  0
   -3.5683   -1.0207    0.2483 C   0  0  0  0  0  0  0  0  0  0  0  0
   -4.9585   -1.0078    0.4233 C   0  0  0  0  0  0  0  0  0  0  0  0
   -5.7441   -0.0865   -0.2737 C   0  0  0  0  0  0  0  0  0  0  0  0
   -7.1056    0.0223   -0.2090 O   0  0  0  0  0  0  0  0  0  0  0  0
   -7.7969   -0.9870    0.5199 C   0  0  0  0  0  0  0  0  0  0  0  0
   -5.1278    0.8274   -1.1280 C   0  0  0  0  0  0  0  0  0  0  0  0
   -3.7375    0.8284   -1.2858 C   0  0  0  0  0  0  0  0  0  0  0  0
   -3.1974    1.7568   -2.1414 O   0  0  0  0  0  0  0  0  0  0  0  0
   -2.9344    2.9710   -1.4329 C   0  0  0  0  0  0  0  0  0  0  0  0
    7.4755    1.4729    2.4476 H   0  0  0  0  0  0  0  0  0  0  0  0
    7.5350    0.9968    0.7523 H   0  0  0  0  0  0  0  0  0  0  0  0
    8.9623    0.7545    1.7765 H   0  0  0  0  0  0  0  0  0  0  0  0
    7.7604   -0.9343    3.1209 H   0  0  0  0  0  0  0  0  0  0  0  0
    7.7222   -1.4318    1.4287 H   0  0  0  0  0  0  0  0  0  0  0  0
    3.5877   -1.0218    3.4266 H   0  0  0  0  0  0  0  0  0  0  0  0
   -1.1465    0.1804   -2.9941 H   0  0  0  0  0  0  0  0  0  0  0  0
   -2.9749   -1.7601    0.7856 H   0  0  0  0  0  0  0  0  0  0  0  0
   -5.3926   -1.7365    1.1005 H   0  0  0  0  0  0  0  0  0  0  0  0
   -8.8700   -0.8278    0.3734 H   0  0  0  0  0  0  0  0  0  0  0  0
   -7.5579   -1.9898    0.1499 H   0  0  0  0  0  0  0  0  0  0  0  0
   -7.5866   -0.9000    1.5940 H   0  0  0  0  0  0  0  0  0  0  0  0
   -5.7341    1.5430   -1.6781 H   0  0  0  0  0  0  0  0  0  0  0  0
   -2.5500    3.7100   -2.1500 H   0  0  0  0  0  0  0  0  0  0  0  0
   -2.1677    2.8191   -0.6651 H   0  0  0  0  0  0  0  0  0  0  0  0
   -3.8456    3.3770   -0.9759 H   0  0  0  0  0  0  0  0  0  0  0  0
  1  2  1  0
  2  3  1  0
  3  4  1  0
  4  5  2  0
  4  6  1  0
  6  7  2  0
  7  8  1  0
  8  9  1  0
  9 10  2  0
  9 11  1  0
 11 12  1  0
 12 13  2  0
 13 14  1  0
 14 15  2  0
 15 16  1  0
 16 17  1  0
 16 18  1  0
 16 19  1  0
 13 20  1  0
 20 21  2  0
 21 22  1  0
 22 23  2  0
 23 24  1  0
 24 25  1  0
 23 26  1  0
 26 27  2  0
 27 28  1  0
 28 29  1  0
 10  6  1  0
 15 11  1  0
 27 20  1  0
  1 30  1  0
  1 31  1  0
  1 32  1  0
  2 33  1  0
  2 34  1  0
  7 35  1  0
 14 36  1  0
 21 37  1  0
 22 38  1  0
 25 39  1  0
 25 40  1  0
 25 41  1  0
 26 42  1  0
 29 43  1  0
 29 44  1  0
 29 45  1  0
M  END
>  <Unnamed: 0>  (125) 
802

>  <ID>  (125) 
TRAIN_0802

>  <Canonical_Smiles>  (125) 
CCOC(=O)c1csc(n1)n2nc(cc2C(F)(F)F)c3ccc(OC)cc3OC

>  <Inhibition>  (125) 
46.545254

>  <TDC_conf_true_inhibitor>  (125) 
1

>  <TDC_conf_non_inhibitor>  (125) 
0

>  <split>  (125) 
1

$$$$
125
     RDKit          3D

 51 53  0  0  0  0  0  0  0  0999 V2000
   -6.6673    1.1628   -2.4570 C   0  0  0  0  0  0  0  0  0  0  0  0
   -6.6276   -0.2087   -2.0892 O   0  0  0  0  0  0  0  0  0  0  0  0
   -5.8549   -0.5639   -1.0064 C   0  0  0  0  0  0  0  0  0  0  0  0
   -5.0771    0.2421   -0.2594 C   0  0  0  0  0  0  0  0  0  0  0  0
   -4.2921   -0.1493    0.8304 N   0  0  0  0  0  0  0  0  0  0  0  0
   -3.4899    0.8817    1.5593 C   0  0  0  0  0  0  0  0  0  0  0  0
   -2.0405    0.9794    1.0613 C   0  0  0  0  0  0  0  0  0  0  0  0
   -1.2641    1.7632    1.6019 O   0  0  0  0  0  0  0  0  0  0  0  0
   -1.7614    0.1390    0.0012 N   0  0  0  0  0  0  0  0  0  0  0  0
   -0.5262    0.0656   -0.5856 C   0  0  0  0  0  0  0  0  0  0  0  0
    0.5703    0.7275   -0.3107 N   0  0  0  0  0  0  0  0  0  0  0  0
    1.4841    0.2394   -1.2067 C   0  0  0  0  0  0  0  0  0  0  0  0
    2.8892    0.7215   -1.2501 C   0  0  0  0  0  0  0  0  0  0  0  0
    3.6902    0.2720   -0.0248 C   0  0  0  0  0  0  0  0  0  0  0  0
    5.1284    0.7931   -0.0418 C   0  0  0  0  0  0  0  0  0  0  0  0
    5.9933    0.2171   -1.1622 C   0  0  0  0  0  0  0  0  0  0  0  0
    7.4296    0.4428   -0.6960 C   0  0  0  0  0  0  0  0  0  0  0  0
    7.3638    0.6376    0.8189 C   0  0  0  0  0  0  0  0  0  0  0  0
    5.9112    0.3916    1.2070 C   0  0  0  0  0  0  0  0  0  0  0  0
    1.0072   -0.6940   -2.0387 N   0  0  0  0  0  0  0  0  0  0  0  0
   -0.2656   -0.7873   -1.6238 N   0  0  0  0  0  0  0  0  0  0  0  0
   -4.3457   -1.4953    1.2454 C   0  0  0  0  0  0  0  0  0  0  0  0
   -5.0800   -2.4056    0.5812 C   0  0  0  0  0  0  0  0  0  0  0  0
   -5.8662   -2.0101   -0.6115 C   0  0  0  0  0  0  0  0  0  0  0  0
   -6.4837   -2.8646   -1.2396 O   0  0  0  0  0  0  0  0  0  0  0  0
   -3.5619   -1.9427    2.4559 C   0  0  0  0  0  0  0  0  0  0  0  0
   -7.3377    1.2642   -3.3162 H   0  0  0  0  0  0  0  0  0  0  0  0
   -5.6759    1.5147   -2.7601 H   0  0  0  0  0  0  0  0  0  0  0  0
   -7.0678    1.7761   -1.6427 H   0  0  0  0  0  0  0  0  0  0  0  0
   -5.0064    1.3038   -0.4722 H   0  0  0  0  0  0  0  0  0  0  0  0
   -3.4726    0.6733    2.6341 H   0  0  0  0  0  0  0  0  0  0  0  0
   -3.9476    1.8708    1.4340 H   0  0  0  0  0  0  0  0  0  0  0  0
   -2.5137   -0.4551   -0.3236 H   0  0  0  0  0  0  0  0  0  0  0  0
    3.3700    0.3597   -2.1666 H   0  0  0  0  0  0  0  0  0  0  0  0
    2.8825    1.8170   -1.3077 H   0  0  0  0  0  0  0  0  0  0  0  0
    3.1937    0.6308    0.8868 H   0  0  0  0  0  0  0  0  0  0  0  0
    3.6870   -0.8247    0.0358 H   0  0  0  0  0  0  0  0  0  0  0  0
    5.1191    1.8892   -0.1195 H   0  0  0  0  0  0  0  0  0  0  0  0
    5.8099   -0.8582   -1.2811 H   0  0  0  0  0  0  0  0  0  0  0  0
    5.8033    0.6969   -2.1277 H   0  0  0  0  0  0  0  0  0  0  0  0
    8.0661   -0.4060   -0.9668 H   0  0  0  0  0  0  0  0  0  0  0  0
    7.8547    1.3351   -1.1698 H   0  0  0  0  0  0  0  0  0  0  0  0
    8.0439   -0.0361    1.3499 H   0  0  0  0  0  0  0  0  0  0  0  0
    7.6534    1.6648    1.0712 H   0  0  0  0  0  0  0  0  0  0  0  0
    5.6186    0.9723    2.0874 H   0  0  0  0  0  0  0  0  0  0  0  0
    5.7624   -0.6707    1.4377 H   0  0  0  0  0  0  0  0  0  0  0  0
   -0.8872   -1.4407   -2.0820 H   0  0  0  0  0  0  0  0  0  0  0  0
   -5.1445   -3.4483    0.8651 H   0  0  0  0  0  0  0  0  0  0  0  0
   -3.9415   -1.4560    3.3602 H   0  0  0  0  0  0  0  0  0  0  0  0
   -3.6327   -3.0240    2.6149 H   0  0  0  0  0  0  0  0  0  0  0  0
   -2.5000   -1.7037    2.3420 H   0  0  0  0  0  0  0  0  0  0  0  0
  1  2  1  0
  2  3  1  0
  3  4  2  0
  4  5  1  0
  5  6  1  0
  6  7  1  0
  7  8  2  0
  7  9  1  0
  9 10  1  0
 10 11  2  0
 11 12  1  0
 12 13  1  0
 13 14  1  0
 14 15  1  0
 15 16  1  0
 16 17  1  0
 17 18  1  0
 18 19  1  0
 12 20  2  0
 20 21  1  0
  5 22  1  0
 22 23  2  0
 23 24  1  0
 24 25  2  0
 22 26  1  0
 24  3  1  0
 21 10  1  0
 19 15  1  0
  1 27  1  0
  1 28  1  0
  1 29  1  0
  4 30  1  0
  6 31  1  0
  6 32  1  0
  9 33  1  0
 13 34  1  0
 13 35  1  0
 14 36  1  0
 14 37  1  0
 15 38  1  0
 16 39  1  0
 16 40  1  0
 17 41  1  0
 17 42  1  0
 18 43  1  0
 18 44  1  0
 19 45  1  0
 19 46  1  0
 21 47  1  0
 23 48  1  0
 26 49  1  0
 26 50  1  0
 26 51  1  0
M  END
>  <Unnamed: 0>  (126) 
804

>  <ID>  (126) 
TRAIN_0804

>  <Canonical_Smiles>  (126) 
COC1=CN(CC(=O)Nc2nc(CCC3CCCC3)n[nH]2)C(=CC1=O)C

>  <Inhibition>  (126) 
24.228319

>  <TDC_conf_true_inhibitor>  (126) 
0

>  <TDC_conf_non_inhibitor>  (126) 
1

>  <split>  (126) 
1

$$$$
126
     RDKit          3D

 41 43  0  0  0  0  0  0  0  0999 V2000
    5.7584    1.4230   -0.2638 C   0  0  0  0  0  0  0  0  0  0  0  0
    4.3320    1.2480   -0.5249 N   0  0  0  0  0  0  0  0  0  0  0  0
    3.9719   -0.1754   -0.5404 C   0  0  0  0  0  0  0  0  0  0  0  0
    2.4728   -0.3834   -0.3544 C   0  0  0  0  0  0  0  0  0  0  0  0
    2.0275    0.1145    1.0275 C   0  0  0  0  0  0  0  0  0  0  0  0
    2.8902    1.2861    1.5243 C   0  0  0  0  0  0  0  0  0  0  0  0
    3.4979    2.0678    0.3633 C   0  0  0  0  0  0  0  0  0  0  0  0
    0.6263    0.5248    0.9887 N   0  0  0  0  0  0  0  0  0  0  0  0
   -0.4015   -0.3465    0.9634 C   0  0  0  0  0  0  0  0  0  0  0  0
   -0.4059   -1.6546    1.4780 C   0  0  0  0  0  0  0  0  0  0  0  0
   -1.6694   -2.1265    1.2208 C   0  0  0  0  0  0  0  0  0  0  0  0
   -2.3552   -1.1099    0.5865 N   0  0  0  0  0  0  0  0  0  0  0  0
   -1.5751   -0.0219    0.4317 N   0  0  0  0  0  0  0  0  0  0  0  0
   -3.7164   -1.1756    0.1401 C   0  0  0  0  0  0  0  0  0  0  0  0
   -4.3508   -2.3666    0.3883 N   0  0  0  0  0  0  0  0  0  0  0  0
   -5.6336   -2.5109    0.0021 C   0  0  0  0  0  0  0  0  0  0  0  0
   -6.3462   -1.5200   -0.6337 C   0  0  0  0  0  0  0  0  0  0  0  0
   -5.7003   -0.3149   -0.8851 C   0  0  0  0  0  0  0  0  0  0  0  0
   -4.3567   -0.1100   -0.5018 C   0  0  0  0  0  0  0  0  0  0  0  0
   -3.7226    1.2221   -0.8099 C   0  0  0  0  0  0  0  0  0  0  0  0
   -3.3464    1.9277    0.2898 F   0  0  0  0  0  0  0  0  0  0  0  0
   -2.6611    1.1507   -1.6573 F   0  0  0  0  0  0  0  0  0  0  0  0
   -4.6000    2.0604   -1.4536 F   0  0  0  0  0  0  0  0  0  0  0  0
    6.3557    0.8461   -0.9788 H   0  0  0  0  0  0  0  0  0  0  0  0
    6.0321    1.1080    0.7494 H   0  0  0  0  0  0  0  0  0  0  0  0
    6.0480    2.4721   -0.3901 H   0  0  0  0  0  0  0  0  0  0  0  0
    4.2813   -0.6092   -1.4984 H   0  0  0  0  0  0  0  0  0  0  0  0
    4.5015   -0.7266    0.2485 H   0  0  0  0  0  0  0  0  0  0  0  0
    2.2277   -1.4473   -0.4590 H   0  0  0  0  0  0  0  0  0  0  0  0
    1.9293    0.1344   -1.1564 H   0  0  0  0  0  0  0  0  0  0  0  0
    2.1527   -0.6917    1.7612 H   0  0  0  0  0  0  0  0  0  0  0  0
    3.7053    0.8932    2.1467 H   0  0  0  0  0  0  0  0  0  0  0  0
    2.3104    1.9596    2.1671 H   0  0  0  0  0  0  0  0  0  0  0  0
    4.0536    2.9315    0.7496 H   0  0  0  0  0  0  0  0  0  0  0  0
    2.6848    2.4926   -0.2393 H   0  0  0  0  0  0  0  0  0  0  0  0
    0.4552    1.3653    0.4411 H   0  0  0  0  0  0  0  0  0  0  0  0
    0.3882   -2.1889    1.9764 H   0  0  0  0  0  0  0  0  0  0  0  0
   -2.1447   -3.0742    1.4306 H   0  0  0  0  0  0  0  0  0  0  0  0
   -6.0834   -3.4742    0.2258 H   0  0  0  0  0  0  0  0  0  0  0  0
   -7.3782   -1.6767   -0.9282 H   0  0  0  0  0  0  0  0  0  0  0  0
   -6.2553    0.4769   -1.3887 H   0  0  0  0  0  0  0  0  0  0  0  0
  1  2  1  0
  2  3  1  0
  3  4  1  0
  4  5  1  0
  5  6  1  0
  6  7  1  0
  5  8  1  0
  8  9  1  0
  9 10  1  0
 10 11  2  0
 11 12  1  0
 12 13  1  0
 12 14  1  0
 14 15  2  0
 15 16  1  0
 16 17  2  0
 17 18  1  0
 18 19  2  0
 19 20  1  0
 20 21  1  0
 20 22  1  0
 20 23  1  0
  7  2  1  0
 13  9  2  0
 19 14  1  0
  1 24  1  0
  1 25  1  0
  1 26  1  0
  3 27  1  0
  3 28  1  0
  4 29  1  0
  4 30  1  0
  5 31  1  0
  6 32  1  0
  6 33  1  0
  7 34  1  0
  7 35  1  0
  8 36  1  0
 10 37  1  0
 11 38  1  0
 16 39  1  0
 17 40  1  0
 18 41  1  0
M  END
>  <Unnamed: 0>  (127) 
812

>  <ID>  (127) 
TRAIN_0812

>  <Canonical_Smiles>  (127) 
CN1CCC(CC1)Nc2ccn(n2)c3ncccc3C(F)(F)F

>  <Inhibition>  (127) 
12.559276

>  <TDC_conf_true_inhibitor>  (127) 
0

>  <TDC_conf_non_inhibitor>  (127) 
1

>  <split>  (127) 
1

$$$$
127
     RDKit          3D

 49 51  0  0  0  0  0  0  0  0999 V2000
    5.1564    3.0107   -0.0600 C   0  0  0  0  0  0  0  0  0  0  0  0
    5.6387    1.6503   -0.5308 C   0  0  0  0  0  0  0  0  0  0  0  0
    4.6145    0.6632   -0.3389 O   0  0  0  0  0  0  0  0  0  0  0  0
    3.6910    0.5598   -1.3333 C   0  0  0  0  0  0  0  0  0  0  0  0
    3.6912    1.2515   -2.3444 O   0  0  0  0  0  0  0  0  0  0  0  0
    2.7454   -0.4100   -1.0643 N   0  0  0  0  0  0  0  0  0  0  0  0
    2.7948   -1.2545    0.1302 C   0  0  0  0  0  0  0  0  0  0  0  0
    1.9281   -2.5124    0.0058 C   0  0  0  0  0  0  0  0  0  0  0  0
    0.5466   -2.2146   -0.3883 N   0  0  0  0  0  0  0  0  0  0  0  0
    0.3538   -1.0621   -1.2793 C   0  0  0  0  0  0  0  0  0  0  0  0
    1.6402   -0.6231   -1.9942 C   0  0  0  0  0  0  0  0  0  0  0  0
   -0.4447   -3.1184   -0.0302 C   0  0  0  0  0  0  0  0  0  0  0  0
   -0.1611   -4.1869    0.5211 O   0  0  0  0  0  0  0  0  0  0  0  0
   -1.9086   -2.7996   -0.3501 C   0  0  0  0  0  0  0  0  0  0  0  0
   -2.3817   -1.6472    0.3897 N   0  0  0  0  0  0  0  0  0  0  0  0
   -2.7095   -1.6049    1.6834 C   0  0  0  0  0  0  0  0  0  0  0  0
   -3.1898   -0.5243    2.1925 N   0  0  0  0  0  0  0  0  0  0  0  0
   -3.2366    0.3982    1.0206 C   0  0  0  0  0  0  0  0  0  0  0  0
   -4.6585    0.9251    0.8042 C   0  0  0  0  0  0  0  0  0  0  0  0
   -4.5794    2.4186    1.1093 C   0  0  0  0  0  0  0  0  0  0  0  0
   -3.1524    2.7924    0.7460 C   0  0  0  0  0  0  0  0  0  0  0  0
   -2.3406    1.6150    1.2697 C   0  0  0  0  0  0  0  0  0  0  0  0
   -2.7357   -0.4519   -0.1448 C   0  0  0  0  0  0  0  0  0  0  0  0
   -2.6673   -0.1184   -1.3174 O   0  0  0  0  0  0  0  0  0  0  0  0
   -2.5257   -2.6951    2.4239 O   0  0  0  0  0  0  0  0  0  0  0  0
    4.3023    3.3531   -0.6529 H   0  0  0  0  0  0  0  0  0  0  0  0
    4.8205    2.9601    0.9819 H   0  0  0  0  0  0  0  0  0  0  0  0
    5.9551    3.7545   -0.1387 H   0  0  0  0  0  0  0  0  0  0  0  0
    6.4978    1.3377    0.0719 H   0  0  0  0  0  0  0  0  0  0  0  0
    5.9732    1.6794   -1.5746 H   0  0  0  0  0  0  0  0  0  0  0  0
    2.4403   -0.6371    0.9648 H   0  0  0  0  0  0  0  0  0  0  0  0
    3.8322   -1.5369    0.3401 H   0  0  0  0  0  0  0  0  0  0  0  0
    2.3388   -3.1764   -0.7656 H   0  0  0  0  0  0  0  0  0  0  0  0
    1.9398   -3.0635    0.9527 H   0  0  0  0  0  0  0  0  0  0  0  0
    0.0001   -0.2403   -0.6487 H   0  0  0  0  0  0  0  0  0  0  0  0
   -0.4110   -1.2944   -2.0236 H   0  0  0  0  0  0  0  0  0  0  0  0
    1.9639   -1.4035   -2.6945 H   0  0  0  0  0  0  0  0  0  0  0  0
    1.4516    0.2854   -2.5769 H   0  0  0  0  0  0  0  0  0  0  0  0
   -2.5153   -3.6655   -0.0608 H   0  0  0  0  0  0  0  0  0  0  0  0
   -2.0307   -2.6508   -1.4267 H   0  0  0  0  0  0  0  0  0  0  0  0
   -5.3999    0.4391    1.4484 H   0  0  0  0  0  0  0  0  0  0  0  0
   -4.9836    0.7810   -0.2339 H   0  0  0  0  0  0  0  0  0  0  0  0
   -4.7535    2.5916    2.1788 H   0  0  0  0  0  0  0  0  0  0  0  0
   -5.3185    2.9962    0.5462 H   0  0  0  0  0  0  0  0  0  0  0  0
   -3.0454    2.8733   -0.3429 H   0  0  0  0  0  0  0  0  0  0  0  0
   -2.8429    3.7421    1.1925 H   0  0  0  0  0  0  0  0  0  0  0  0
   -1.3696    1.5515    0.7675 H   0  0  0  0  0  0  0  0  0  0  0  0
   -2.1516    1.7498    2.3423 H   0  0  0  0  0  0  0  0  0  0  0  0
   -2.8030   -2.4879    3.3324 H   0  0  0  0  0  0  0  0  0  0  0  0
  1  2  1  0
  2  3  1  0
  3  4  1  0
  4  5  2  0
  4  6  1  0
  6  7  1  0
  7  8  1  0
  8  9  1  0
  9 10  1  0
 10 11  1  0
  9 12  1  0
 12 13  2  0
 12 14  1  0
 14 15  1  0
 15 16  1  0
 16 17  2  0
 17 18  1  0
 18 19  1  0
 19 20  1  0
 20 21  1  0
 21 22  1  0
 18 23  1  0
 23 24  2  0
 16 25  1  0
 11  6  1  0
 23 15  1  0
 22 18  1  0
  1 26  1  0
  1 27  1  0
  1 28  1  0
  2 29  1  0
  2 30  1  0
  7 31  1  0
  7 32  1  0
  8 33  1  0
  8 34  1  0
 10 35  1  0
 10 36  1  0
 11 37  1  0
 11 38  1  0
 14 39  1  0
 14 40  1  0
 19 41  1  0
 19 42  1  0
 20 43  1  0
 20 44  1  0
 21 45  1  0
 21 46  1  0
 22 47  1  0
 22 48  1  0
 25 49  1  0
M  END
>  <Unnamed: 0>  (128) 
814

>  <ID>  (128) 
TRAIN_0814

>  <Canonical_Smiles>  (128) 
CCOC(=O)N1CCN(CC1)C(=O)CN2C(=NC3(CCCC3)C2=O)O

>  <Inhibition>  (128) 
0.5

>  <TDC_conf_true_inhibitor>  (128) 
0

>  <TDC_conf_non_inhibitor>  (128) 
1

>  <split>  (128) 
1

$$$$
128
     RDKit          3D

 39 41  0  0  0  0  0  0  0  0999 V2000
   -2.0420   -1.6045   -2.0737 C   0  0  0  0  0  0  0  0  0  0  0  0
   -2.0616   -0.6611   -0.8566 C   0  0  0  0  0  0  0  0  0  0  0  0
   -2.6403    0.6705   -1.1741 N   0  0  0  0  0  0  0  0  0  0  0  0
   -2.7579    1.5261    0.0245 C   0  0  0  0  0  0  0  0  0  0  0  0
   -4.0831    1.1574    0.6781 C   0  0  0  0  0  0  0  0  0  0  0  0
   -4.9061    0.5220   -0.4329 C   0  0  0  0  0  0  0  0  0  0  0  0
   -4.0256    0.6193   -1.6688 C   0  0  0  0  0  0  0  0  0  0  0  0
   -0.6217   -0.5507   -0.3485 C   0  0  0  0  0  0  0  0  0  0  0  0
    0.3442    0.1881   -1.0496 C   0  0  0  0  0  0  0  0  0  0  0  0
    1.6590    0.2719   -0.5811 C   0  0  0  0  0  0  0  0  0  0  0  0
    2.0407   -0.3831    0.5969 C   0  0  0  0  0  0  0  0  0  0  0  0
    1.0779   -1.1239    1.2964 C   0  0  0  0  0  0  0  0  0  0  0  0
   -0.2383   -1.2085    0.8296 C   0  0  0  0  0  0  0  0  0  0  0  0
    3.4154   -0.2911    1.0801 C   0  0  0  0  0  0  0  0  0  0  0  0
    3.8656   -0.8845    2.1983 N   0  0  0  0  0  0  0  0  0  0  0  0
    5.1535   -0.5175    2.2179 N   0  0  0  0  0  0  0  0  0  0  0  0
    5.4698    0.2676    1.1526 C   0  0  0  0  0  0  0  0  0  0  0  0
    4.3867    0.4278    0.4139 N   0  0  0  0  0  0  0  0  0  0  0  0
    6.8450    0.7834    0.9829 C   0  0  0  0  0  0  0  0  0  0  0  0
    6.8983    2.1386    0.9891 F   0  0  0  0  0  0  0  0  0  0  0  0
    7.6542    0.3622    1.9954 F   0  0  0  0  0  0  0  0  0  0  0  0
    7.4223    0.3607   -0.1693 F   0  0  0  0  0  0  0  0  0  0  0  0
   -3.0495   -1.9223   -2.3579 H   0  0  0  0  0  0  0  0  0  0  0  0
   -1.4769   -2.5186   -1.8543 H   0  0  0  0  0  0  0  0  0  0  0  0
   -1.5754   -1.1321   -2.9459 H   0  0  0  0  0  0  0  0  0  0  0  0
   -2.6638   -1.1491   -0.0785 H   0  0  0  0  0  0  0  0  0  0  0  0
   -1.9207    1.4607    0.7260 H   0  0  0  0  0  0  0  0  0  0  0  0
   -2.7958    2.5723   -0.3061 H   0  0  0  0  0  0  0  0  0  0  0  0
   -3.9331    0.4375    1.4907 H   0  0  0  0  0  0  0  0  0  0  0  0
   -4.5802    2.0388    1.0958 H   0  0  0  0  0  0  0  0  0  0  0  0
   -5.8616    1.0363   -0.5760 H   0  0  0  0  0  0  0  0  0  0  0  0
   -5.1195   -0.5248   -0.1878 H   0  0  0  0  0  0  0  0  0  0  0  0
   -4.2367    1.5638   -2.1879 H   0  0  0  0  0  0  0  0  0  0  0  0
   -4.2345   -0.1695   -2.3951 H   0  0  0  0  0  0  0  0  0  0  0  0
    0.0691    0.7110   -1.9639 H   0  0  0  0  0  0  0  0  0  0  0  0
    2.3838    0.8560   -1.1447 H   0  0  0  0  0  0  0  0  0  0  0  0
    1.3478   -1.6430    2.2139 H   0  0  0  0  0  0  0  0  0  0  0  0
   -0.9605   -1.7926    1.3951 H   0  0  0  0  0  0  0  0  0  0  0  0
    5.7514   -0.8333    2.9756 H   0  0  0  0  0  0  0  0  0  0  0  0
  1  2  1  0
  2  3  1  0
  3  4  1  0
  4  5  1  0
  5  6  1  0
  6  7  1  0
  2  8  1  0
  8  9  2  0
  9 10  1  0
 10 11  2  0
 11 12  1  0
 12 13  2  0
 11 14  1  0
 14 15  2  0
 15 16  1  0
 16 17  1  0
 17 18  2  0
 17 19  1  0
 19 20  1  0
 19 21  1  0
 19 22  1  0
  7  3  1  0
 13  8  1  0
 18 14  1  0
  1 23  1  0
  1 24  1  0
  1 25  1  0
  2 26  1  0
  4 27  1  0
  4 28  1  0
  5 29  1  0
  5 30  1  0
  6 31  1  0
  6 32  1  0
  7 33  1  0
  7 34  1  0
  9 35  1  0
 10 36  1  0
 12 37  1  0
 13 38  1  0
 16 39  1  0
M  END
>  <Unnamed: 0>  (129) 
816

>  <ID>  (129) 
TRAIN_0816

>  <Canonical_Smiles>  (129) 
CC(N1CCCC1)c2ccc(cc2)c3n[nH]c(n3)C(F)(F)F

>  <Inhibition>  (129) 
22.264568

>  <TDC_conf_true_inhibitor>  (129) 
0

>  <TDC_conf_non_inhibitor>  (129) 
1

>  <split>  (129) 
1

$$$$
129
     RDKit          3D

 36 37  0  0  0  0  0  0  0  0999 V2000
   -5.3735   -0.7992    0.2851 C   0  0  0  0  0  0  0  0  0  0  0  0
   -4.0562   -0.0831    0.6009 C   0  0  0  0  0  0  0  0  0  0  0  0
   -4.3304    1.3343    1.1081 C   0  0  0  0  0  0  0  0  0  0  0  0
   -3.0942   -0.0629   -0.5727 C   0  0  0  0  0  0  0  0  0  0  0  0
   -3.4607    0.1038   -1.8987 C   0  0  0  0  0  0  0  0  0  0  0  0
   -2.1360    0.0722   -2.9763 S   0  0  0  0  0  0  0  0  0  0  0  0
   -1.0264   -0.1370   -1.7020 C   0  0  0  0  0  0  0  0  0  0  0  0
    0.3088   -0.2323   -1.9443 N   0  0  0  0  0  0  0  0  0  0  0  0
    1.0363   -0.3768   -0.8799 C   0  0  0  0  0  0  0  0  0  0  0  0
    2.5502   -0.4892   -0.9819 C   0  0  0  0  0  0  0  0  0  0  0  0
    3.1083   -0.8399    0.2848 O   0  0  0  0  0  0  0  0  0  0  0  0
    4.5247   -1.0521    0.2354 C   0  0  0  0  0  0  0  0  0  0  0  0
    5.3848    0.2052    0.0973 C   0  0  0  0  0  0  0  0  0  0  0  0
    6.6952   -0.1524    0.2416 F   0  0  0  0  0  0  0  0  0  0  0  0
    5.2847    0.6861   -1.1749 F   0  0  0  0  0  0  0  0  0  0  0  0
    5.0470    1.3025    1.0942 C   0  0  0  0  0  0  0  0  0  0  0  0
    5.1300    0.8359    2.3686 F   0  0  0  0  0  0  0  0  0  0  0  0
    3.7751    1.7514    0.9315 F   0  0  0  0  0  0  0  0  0  0  0  0
    0.5295   -0.4264    0.3992 N   0  0  0  0  0  0  0  0  0  0  0  0
   -0.8084   -0.3345    0.6981 C   0  0  0  0  0  0  0  0  0  0  0  0
   -1.2146   -0.3754    1.8545 O   0  0  0  0  0  0  0  0  0  0  0  0
   -1.6577   -0.1828   -0.4726 C   0  0  0  0  0  0  0  0  0  0  0  0
   -5.9627   -0.2597   -0.4644 H   0  0  0  0  0  0  0  0  0  0  0  0
   -5.1893   -1.8104   -0.0945 H   0  0  0  0  0  0  0  0  0  0  0  0
   -5.9887   -0.8873    1.1873 H   0  0  0  0  0  0  0  0  0  0  0  0
   -3.5961   -0.6503    1.4178 H   0  0  0  0  0  0  0  0  0  0  0  0
   -4.8148    1.9474    0.3397 H   0  0  0  0  0  0  0  0  0  0  0  0
   -4.9839    1.3139    1.9867 H   0  0  0  0  0  0  0  0  0  0  0  0
   -3.3996    1.8363    1.3944 H   0  0  0  0  0  0  0  0  0  0  0  0
   -4.4560    0.2396   -2.2994 H   0  0  0  0  0  0  0  0  0  0  0  0
    2.9316    0.4808   -1.3146 H   0  0  0  0  0  0  0  0  0  0  0  0
    2.7900   -1.2553   -1.7272 H   0  0  0  0  0  0  0  0  0  0  0  0
    4.7582   -1.7580   -0.5707 H   0  0  0  0  0  0  0  0  0  0  0  0
    4.7943   -1.5565    1.1701 H   0  0  0  0  0  0  0  0  0  0  0  0
    5.7265    2.1531    0.9943 H   0  0  0  0  0  0  0  0  0  0  0  0
    1.1741   -0.5408    1.1713 H   0  0  0  0  0  0  0  0  0  0  0  0
  1  2  1  0
  2  3  1  0
  2  4  1  0
  4  5  2  0
  5  6  1  0
  6  7  1  0
  7  8  1  0
  8  9  2  0
  9 10  1  0
 10 11  1  0
 11 12  1  0
 12 13  1  0
 13 14  1  0
 13 15  1  0
 13 16  1  0
 16 17  1  0
 16 18  1  0
  9 19  1  0
 19 20  1  0
 20 21  2  0
 20 22  1  0
 22  4  1  0
 22  7  2  0
  1 23  1  0
  1 24  1  0
  1 25  1  0
  2 26  1  0
  3 27  1  0
  3 28  1  0
  3 29  1  0
  5 30  1  0
 10 31  1  0
 10 32  1  0
 12 33  1  0
 12 34  1  0
 16 35  1  0
 19 36  1  0
M  END
>  <Unnamed: 0>  (130) 
818

>  <ID>  (130) 
TRAIN_0818

>  <Canonical_Smiles>  (130) 
CC(C)c1csc2N=C(COCC(F)(F)C(F)F)NC(=O)c12

>  <Inhibition>  (130) 
36.662497

>  <TDC_conf_true_inhibitor>  (130) 
0

>  <TDC_conf_non_inhibitor>  (130) 
1

>  <split>  (130) 
1

$$$$
130
     RDKit          3D

 37 40  0  0  0  0  0  0  0  0999 V2000
    6.6319    0.0710   -0.1864 O   0  0  0  0  0  0  0  0  0  0  0  0
    5.3360    0.2758    0.1472 C   0  0  0  0  0  0  0  0  0  0  0  0
    5.0046    1.3442    0.6319 O   0  0  0  0  0  0  0  0  0  0  0  0
    4.4848   -0.9180   -0.1785 C   0  0  0  0  0  0  0  0  0  0  0  0
    3.1080   -0.7545    0.3214 C   0  0  0  0  0  0  0  0  0  0  0  0
    2.7624   -0.9913    1.6234 N   0  0  0  0  0  0  0  0  0  0  0  0
    1.4558   -0.7893    1.7062 N   0  0  0  0  0  0  0  0  0  0  0  0
    1.0745   -0.4309    0.4628 N   0  0  0  0  0  0  0  0  0  0  0  0
    2.0625   -0.4422   -0.4595 N   0  0  0  0  0  0  0  0  0  0  0  0
   -0.3216   -0.1380    0.1390 C   0  0  0  0  0  0  0  0  0  0  0  0
   -1.1684   -1.4343    0.2316 C   0  0  0  0  0  0  0  0  0  0  0  0
   -2.6469   -1.1436   -0.0805 C   0  0  0  0  0  0  0  0  0  0  0  0
   -2.7640   -0.5731   -1.5027 C   0  0  0  0  0  0  0  0  0  0  0  0
   -1.9575    0.7303   -1.6143 C   0  0  0  0  0  0  0  0  0  0  0  0
   -2.4991    1.7533   -0.6046 C   0  0  0  0  0  0  0  0  0  0  0  0
   -2.3806    1.1951    0.8215 C   0  0  0  0  0  0  0  0  0  0  0  0
   -3.1843   -0.1118    0.9249 C   0  0  0  0  0  0  0  0  0  0  0  0
   -0.9022    0.9055    1.1329 C   0  0  0  0  0  0  0  0  0  0  0  0
   -0.4808    0.4388   -1.2979 C   0  0  0  0  0  0  0  0  0  0  0  0
    7.0734    0.9097    0.0678 H   0  0  0  0  0  0  0  0  0  0  0  0
    4.9343   -1.8025    0.2861 H   0  0  0  0  0  0  0  0  0  0  0  0
    4.4856   -1.0556   -1.2651 H   0  0  0  0  0  0  0  0  0  0  0  0
   -0.7827   -2.1889   -0.4668 H   0  0  0  0  0  0  0  0  0  0  0  0
   -1.0896   -1.8749    1.2343 H   0  0  0  0  0  0  0  0  0  0  0  0
   -3.2280   -2.0695   -0.0054 H   0  0  0  0  0  0  0  0  0  0  0  0
   -2.3967   -1.3055   -2.2320 H   0  0  0  0  0  0  0  0  0  0  0  0
   -3.8170   -0.3837   -1.7448 H   0  0  0  0  0  0  0  0  0  0  0  0
   -2.0448    1.1324   -2.6299 H   0  0  0  0  0  0  0  0  0  0  0  0
   -3.5474    1.9843   -0.8308 H   0  0  0  0  0  0  0  0  0  0  0  0
   -1.9410    2.6940   -0.6871 H   0  0  0  0  0  0  0  0  0  0  0  0
   -2.7716    1.9266    1.5376 H   0  0  0  0  0  0  0  0  0  0  0  0
   -4.2452    0.0852    0.7275 H   0  0  0  0  0  0  0  0  0  0  0  0
   -3.1195   -0.5123    1.9441 H   0  0  0  0  0  0  0  0  0  0  0  0
   -0.8203    0.5445    2.1666 H   0  0  0  0  0  0  0  0  0  0  0  0
   -0.3217    1.8364    1.0849 H   0  0  0  0  0  0  0  0  0  0  0  0
    0.1059    1.3610   -1.4044 H   0  0  0  0  0  0  0  0  0  0  0  0
   -0.0889   -0.2682   -2.0412 H   0  0  0  0  0  0  0  0  0  0  0  0
  1  2  1  0
  2  3  2  0
  2  4  1  0
  4  5  1  0
  5  6  1  0
  6  7  2  0
  7  8  1  0
  8  9  1  0
  8 10  1  0
 10 11  1  0
 11 12  1  0
 12 13  1  0
 13 14  1  0
 14 15  1  0
 15 16  1  0
 16 17  1  0
 16 18  1  0
 14 19  1  0
  9  5  2  0
 18 10  1  0
 19 10  1  0
 17 12  1  0
  1 20  1  0
  4 21  1  0
  4 22  1  0
 11 23  1  0
 11 24  1  0
 12 25  1  0
 13 26  1  0
 13 27  1  0
 14 28  1  0
 15 29  1  0
 15 30  1  0
 16 31  1  0
 17 32  1  0
 17 33  1  0
 18 34  1  0
 18 35  1  0
 19 36  1  0
 19 37  1  0
M  END
>  <Unnamed: 0>  (131) 
819

>  <ID>  (131) 
TRAIN_0819

>  <Canonical_Smiles>  (131) 
OC(=O)Cc1nnn(n1)C23CC4CC(CC(C4)C2)C3

>  <Inhibition>  (131) 
21.996916

>  <TDC_conf_true_inhibitor>  (131) 
0

>  <TDC_conf_non_inhibitor>  (131) 
1

>  <split>  (131) 
1

$$$$
131
     RDKit          3D

 62 64  0  0  0  0  0  0  0  0999 V2000
    5.0505    3.0743   -2.4538 C   0  0  0  0  0  0  0  0  0  0  0  0
    4.9993    2.4898   -1.1154 N   0  0  0  0  0  0  0  0  0  0  0  0
    5.4368    3.3627   -0.0279 C   0  0  0  0  0  0  0  0  0  0  0  0
    4.0393    1.5052   -0.8435 C   0  0  0  0  0  0  0  0  0  0  0  0
    3.7612    1.0738    0.4678 C   0  0  0  0  0  0  0  0  0  0  0  0
    2.8029    0.0870    0.7469 C   0  0  0  0  0  0  0  0  0  0  0  0
    2.0715   -0.4947   -0.2843 C   0  0  0  0  0  0  0  0  0  0  0  0
    2.3679   -0.1368   -1.5985 C   0  0  0  0  0  0  0  0  0  0  0  0
    3.3311    0.8478   -1.8668 C   0  0  0  0  0  0  0  0  0  0  0  0
    1.1138   -1.5426   -0.0185 C   0  0  0  0  0  0  0  0  0  0  0  0
    1.4782   -2.8425   -0.3148 N   0  0  0  0  0  0  0  0  0  0  0  0
    0.4856   -3.5906    0.0984 C   0  0  0  0  0  0  0  0  0  0  0  0
    0.3688   -5.0764   -0.0013 C   0  0  0  0  0  0  0  0  0  0  0  0
   -0.6887   -5.6300    0.8641 N   0  0  0  0  0  0  0  0  0  0  0  0
   -1.9231   -4.8518    0.7173 C   0  0  0  0  0  0  0  0  0  0  0  0
   -1.7284   -3.3995    1.1676 C   0  0  0  0  0  0  0  0  0  0  0  0
   -0.5176   -2.8149    0.6198 N   0  0  0  0  0  0  0  0  0  0  0  0
   -0.1651   -1.4754    0.5406 C   0  0  0  0  0  0  0  0  0  0  0  0
   -1.0742   -0.5512    0.9791 N   0  0  0  0  0  0  0  0  0  0  0  0
   -1.0798    0.9156    0.8858 C   0  0  0  0  0  0  0  0  0  0  0  0
   -0.3071    1.4685    2.1031 C   0  0  0  0  0  0  0  0  0  0  0  0
   -0.4920    1.4799   -0.4029 C   0  0  0  0  0  0  0  0  0  0  0  0
   -2.5685    1.4033    1.0610 C   0  0  0  0  0  0  0  0  0  0  0  0
   -3.6709    1.1455   -0.0201 C   0  0  0  0  0  0  0  0  0  0  0  0
   -3.4915    2.0141   -1.2780 C   0  0  0  0  0  0  0  0  0  0  0  0
   -5.0264    1.5460    0.6148 C   0  0  0  0  0  0  0  0  0  0  0  0
   -3.7711   -0.3255   -0.4413 C   0  0  0  0  0  0  0  0  0  0  0  0
    5.2978    2.3189   -3.2077 H   0  0  0  0  0  0  0  0  0  0  0  0
    4.1004    3.5554   -2.7105 H   0  0  0  0  0  0  0  0  0  0  0  0
    5.8359    3.8350   -2.5247 H   0  0  0  0  0  0  0  0  0  0  0  0
    4.5916    3.9150    0.3981 H   0  0  0  0  0  0  0  0  0  0  0  0
    6.1681    4.0997   -0.3795 H   0  0  0  0  0  0  0  0  0  0  0  0
    5.9414    2.7936    0.7605 H   0  0  0  0  0  0  0  0  0  0  0  0
    4.2957    1.4851    1.3181 H   0  0  0  0  0  0  0  0  0  0  0  0
    2.6421   -0.2289    1.7745 H   0  0  0  0  0  0  0  0  0  0  0  0
    1.8533   -0.6255   -2.4225 H   0  0  0  0  0  0  0  0  0  0  0  0
    3.5126    1.0765   -2.9121 H   0  0  0  0  0  0  0  0  0  0  0  0
    1.3230   -5.5355    0.2778 H   0  0  0  0  0  0  0  0  0  0  0  0
    0.1679   -5.3464   -1.0453 H   0  0  0  0  0  0  0  0  0  0  0  0
   -0.8498   -6.5990    0.5914 H   0  0  0  0  0  0  0  0  0  0  0  0
   -2.2678   -4.8873   -0.3267 H   0  0  0  0  0  0  0  0  0  0  0  0
   -2.7121   -5.3100    1.3255 H   0  0  0  0  0  0  0  0  0  0  0  0
   -1.6384   -3.3377    2.2587 H   0  0  0  0  0  0  0  0  0  0  0  0
   -2.5832   -2.8011    0.8429 H   0  0  0  0  0  0  0  0  0  0  0  0
   -1.7759   -0.8736    1.6412 H   0  0  0  0  0  0  0  0  0  0  0  0
    0.7330    1.1418    2.1102 H   0  0  0  0  0  0  0  0  0  0  0  0
   -0.3085    2.5647    2.1107 H   0  0  0  0  0  0  0  0  0  0  0  0
   -0.7520    1.1243    3.0449 H   0  0  0  0  0  0  0  0  0  0  0  0
   -0.7106    0.8506   -1.2713 H   0  0  0  0  0  0  0  0  0  0  0  0
    0.5885    1.6041   -0.3352 H   0  0  0  0  0  0  0  0  0  0  0  0
   -0.8647    2.4918   -0.5989 H   0  0  0  0  0  0  0  0  0  0  0  0
   -2.5426    2.4898    1.2372 H   0  0  0  0  0  0  0  0  0  0  0  0
   -2.9368    0.9750    2.0066 H   0  0  0  0  0  0  0  0  0  0  0  0
   -2.6717    1.6657   -1.9098 H   0  0  0  0  0  0  0  0  0  0  0  0
   -4.3908    1.9872   -1.9054 H   0  0  0  0  0  0  0  0  0  0  0  0
   -3.3069    3.0610   -1.0158 H   0  0  0  0  0  0  0  0  0  0  0  0
   -5.8552    1.4054   -0.0889 H   0  0  0  0  0  0  0  0  0  0  0  0
   -5.0241    2.5989    0.9196 H   0  0  0  0  0  0  0  0  0  0  0  0
   -5.2426    0.9397    1.5020 H   0  0  0  0  0  0  0  0  0  0  0  0
   -2.8747   -0.6586   -0.9731 H   0  0  0  0  0  0  0  0  0  0  0  0
   -4.6183   -0.4846   -1.1196 H   0  0  0  0  0  0  0  0  0  0  0  0
   -3.9273   -0.9726    0.4282 H   0  0  0  0  0  0  0  0  0  0  0  0
  1  2  1  0
  2  3  1  0
  2  4  1  0
  4  5  2  0
  5  6  1  0
  6  7  2  0
  7  8  1  0
  8  9  2  0
  7 10  1  0
 10 11  1  0
 11 12  2  0
 12 13  1  0
 13 14  1  0
 14 15  1  0
 15 16  1  0
 16 17  1  0
 17 18  1  0
 18 19  1  0
 19 20  1  0
 20 21  1  0
 20 22  1  0
 20 23  1  0
 23 24  1  0
 24 25  1  0
 24 26  1  0
 24 27  1  0
  9  4  1  0
 18 10  2  0
 17 12  1  0
  1 28  1  0
  1 29  1  0
  1 30  1  0
  3 31  1  0
  3 32  1  0
  3 33  1  0
  5 34  1  0
  6 35  1  0
  8 36  1  0
  9 37  1  0
 13 38  1  0
 13 39  1  0
 14 40  1  0
 15 41  1  0
 15 42  1  0
 16 43  1  0
 16 44  1  0
 19 45  1  0
 21 46  1  0
 21 47  1  0
 21 48  1  0
 22 49  1  0
 22 50  1  0
 22 51  1  0
 23 52  1  0
 23 53  1  0
 25 54  1  0
 25 55  1  0
 25 56  1  0
 26 57  1  0
 26 58  1  0
 26 59  1  0
 27 60  1  0
 27 61  1  0
 27 62  1  0
M  END
>  <Unnamed: 0>  (132) 
821

>  <ID>  (132) 
TRAIN_0821

>  <Canonical_Smiles>  (132) 
CN(C)c1ccc(cc1)c2nc3CNCCn3c2NC(C)(C)CC(C)(C)C

>  <Inhibition>  (132) 
74.602159

>  <TDC_conf_true_inhibitor>  (132) 
1

>  <TDC_conf_non_inhibitor>  (132) 
0

>  <split>  (132) 
1

$$$$
132
     RDKit          3D

 33 36  0  0  0  0  0  0  0  0999 V2000
    1.3354    3.4634   -1.1684 O   0  0  0  0  0  0  0  0  0  0  0  0
    0.9460    2.3626   -0.4505 C   0  0  0  0  0  0  0  0  0  0  0  0
   -0.3493    2.2721   -0.1124 N   0  0  0  0  0  0  0  0  0  0  0  0
   -0.7531    1.1866    0.5961 C   0  0  0  0  0  0  0  0  0  0  0  0
   -2.2249    1.1057    0.9326 C   0  0  0  0  0  0  0  0  0  0  0  0
   -3.0317    0.3385   -0.0900 C   0  0  0  0  0  0  0  0  0  0  0  0
   -3.2847   -1.0299    0.0813 C   0  0  0  0  0  0  0  0  0  0  0  0
   -4.0180   -1.7379   -0.8722 C   0  0  0  0  0  0  0  0  0  0  0  0
   -4.4989   -1.0879   -2.0075 C   0  0  0  0  0  0  0  0  0  0  0  0
   -4.2435    0.2694   -2.1935 C   0  0  0  0  0  0  0  0  0  0  0  0
   -3.5109    0.9797   -1.2415 C   0  0  0  0  0  0  0  0  0  0  0  0
    0.0288    0.1663    1.0242 N   0  0  0  0  0  0  0  0  0  0  0  0
    1.3281    0.2876    0.6650 C   0  0  0  0  0  0  0  0  0  0  0  0
    1.8045    1.3618   -0.0628 C   0  0  0  0  0  0  0  0  0  0  0  0
    3.1395    1.2524   -0.2937 O   0  0  0  0  0  0  0  0  0  0  0  0
    3.5296    0.0834    0.2963 C   0  0  0  0  0  0  0  0  0  0  0  0
    4.8285   -0.4207    0.3010 C   0  0  0  0  0  0  0  0  0  0  0  0
    5.0250   -1.6382    0.9620 C   0  0  0  0  0  0  0  0  0  0  0  0
    3.9650   -2.3053    1.5822 C   0  0  0  0  0  0  0  0  0  0  0  0
    2.6676   -1.7750    1.5622 C   0  0  0  0  0  0  0  0  0  0  0  0
    2.4467   -0.5516    0.9033 C   0  0  0  0  0  0  0  0  0  0  0  0
    2.2881    3.3498   -1.3261 H   0  0  0  0  0  0  0  0  0  0  0  0
   -2.3428    0.6439    1.9213 H   0  0  0  0  0  0  0  0  0  0  0  0
   -2.6327    2.1198    1.0329 H   0  0  0  0  0  0  0  0  0  0  0  0
   -2.9058   -1.5534    0.9566 H   0  0  0  0  0  0  0  0  0  0  0  0
   -4.2099   -2.7983   -0.7312 H   0  0  0  0  0  0  0  0  0  0  0  0
   -5.0674   -1.6405   -2.7506 H   0  0  0  0  0  0  0  0  0  0  0  0
   -4.6101    0.7753   -3.0828 H   0  0  0  0  0  0  0  0  0  0  0  0
   -3.3071    2.0365   -1.4055 H   0  0  0  0  0  0  0  0  0  0  0  0
    5.6420    0.1057   -0.1838 H   0  0  0  0  0  0  0  0  0  0  0  0
    6.0222   -2.0733    0.9929 H   0  0  0  0  0  0  0  0  0  0  0  0
    4.1474   -3.2514    2.0885 H   0  0  0  0  0  0  0  0  0  0  0  0
    1.8461   -2.2973    2.0447 H   0  0  0  0  0  0  0  0  0  0  0  0
  1  2  1  0
  2  3  2  0
  3  4  1  0
  4  5  1  0
  5  6  1  0
  6  7  2  0
  7  8  1  0
  8  9  2  0
  9 10  1  0
 10 11  2  0
  4 12  2  0
 12 13  1  0
 13 14  2  0
 14 15  1  0
 15 16  1  0
 16 17  2  0
 17 18  1  0
 18 19  2  0
 19 20  1  0
 20 21  2  0
 14  2  1  0
 11  6  1  0
 21 13  1  0
 21 16  1  0
  1 22  1  0
  5 23  1  0
  5 24  1  0
  7 25  1  0
  8 26  1  0
  9 27  1  0
 10 28  1  0
 11 29  1  0
 17 30  1  0
 18 31  1  0
 19 32  1  0
 20 33  1  0
M  END
>  <Unnamed: 0>  (133) 
834

>  <ID>  (133) 
TRAIN_0834

>  <Canonical_Smiles>  (133) 
Oc1nc(Cc2ccccc2)nc3c1oc4ccccc34

>  <Inhibition>  (133) 
21.327786

>  <TDC_conf_true_inhibitor>  (133) 
0

>  <TDC_conf_non_inhibitor>  (133) 
1

>  <split>  (133) 
1

$$$$
133
     RDKit          3D

 49 50  0  0  0  0  0  0  0  0999 V2000
    0.0000    0.0000    0.0000 K   0  0  0  0  0 15  0  0  0  0  0  0
   -8.5522    0.4027   -2.3610 O   0  0  0  0  0  1  0  0  0  0  0  0
   -8.7319    0.7267   -0.9486 S   0  0  0  0  0  6  0  0  0  0  0  0
   -9.5802   -0.1985   -0.2007 O   0  0  0  0  0  0  0  0  0  0  0  0
   -8.9392    2.1401   -0.6447 O   0  0  0  0  0  0  0  0  0  0  0  0
   -7.0762    0.4256   -0.2751 C   0  0  0  0  0  0  0  0  0  0  0  0
   -6.8641   -0.5832    0.6644 C   0  0  0  0  0  0  0  0  0  0  0  0
   -5.5770   -0.7894    1.1696 C   0  0  0  0  0  0  0  0  0  0  0  0
   -4.5010    0.0199    0.7634 C   0  0  0  0  0  0  0  0  0  0  0  0
   -3.1969   -0.2838    1.2592 N   0  0  0  0  0  0  0  0  0  0  0  0
   -2.2290    0.6579    1.0782 N   0  0  0  0  0  0  0  0  0  0  0  0
   -1.2681    0.3340    0.2648 C   0  0  0  0  0  0  0  0  0  0  0  0
   -0.1693    1.3504    0.0172 C   0  0  0  0  0  0  0  0  0  0  0  0
    1.1813    0.7307    0.3458 C   0  0  0  0  0  0  0  0  0  0  0  0
    1.3142   -0.5890   -0.3961 C   0  0  0  0  0  0  0  0  0  0  0  0
    2.2712   -0.9171   -1.2127 N   0  0  0  0  0  0  0  0  0  0  0  0
    3.2369    0.0236   -1.4102 N   0  0  0  0  0  0  0  0  0  0  0  0
    4.5141   -0.2091   -0.8150 C   0  0  0  0  0  0  0  0  0  0  0  0
    4.7091   -1.1170    0.2371 C   0  0  0  0  0  0  0  0  0  0  0  0
    5.9649   -1.2574    0.8371 C   0  0  0  0  0  0  0  0  0  0  0  0
    7.0291   -0.4636    0.4036 C   0  0  0  0  0  0  0  0  0  0  0  0
    6.8528    0.4642   -0.6230 C   0  0  0  0  0  0  0  0  0  0  0  0
    5.5950    0.5962   -1.2184 C   0  0  0  0  0  0  0  0  0  0  0  0
    8.6515   -0.6707    1.1849 S   0  0  0  0  0  6  0  0  0  0  0  0
    8.4320   -0.0795    2.5016 O   0  0  0  0  0  0  0  0  0  0  0  0
    9.5508    0.0751    0.3072 O   0  0  0  0  0  0  0  0  0  0  0  0
    8.8302   -2.1200    1.1638 O   0  0  0  0  0  1  0  0  0  0  0  0
    0.2152   -1.6035   -0.1424 C   0  0  0  0  0  0  0  0  0  0  0  0
   -1.1325   -0.9832   -0.4810 C   0  0  0  0  0  0  0  0  0  0  0  0
   -4.7324    1.0065   -0.2074 C   0  0  0  0  0  0  0  0  0  0  0  0
   -6.0170    1.2214   -0.7172 C   0  0  0  0  0  0  0  0  0  0  0  0
   -7.6930   -1.2056    0.9901 H   0  0  0  0  0  0  0  0  0  0  0  0
   -5.4208   -1.5941    1.8820 H   0  0  0  0  0  0  0  0  0  0  0  0
   -3.3100   -0.5546    2.2391 H   0  0  0  0  0  0  0  0  0  0  0  0
   -0.2140    1.6400   -1.0391 H   0  0  0  0  0  0  0  0  0  0  0  0
   -0.3377    2.2454    0.6248 H   0  0  0  0  0  0  0  0  0  0  0  0
    1.2493    0.5113    1.4179 H   0  0  0  0  0  0  0  0  0  0  0  0
    1.9792    1.4343    0.0991 H   0  0  0  0  0  0  0  0  0  0  0  0
    3.4065    0.2139   -2.4007 H   0  0  0  0  0  0  0  0  0  0  0  0
    3.8894   -1.7337    0.5914 H   0  0  0  0  0  0  0  0  0  0  0  0
    6.1232   -1.9712    1.6417 H   0  0  0  0  0  0  0  0  0  0  0  0
    7.6861    1.0827   -0.9451 H   0  0  0  0  0  0  0  0  0  0  0  0
    5.4652    1.3391   -2.0000 H   0  0  0  0  0  0  0  0  0  0  0  0
    0.3840   -2.5029   -0.7429 H   0  0  0  0  0  0  0  0  0  0  0  0
    0.2569   -1.8851    0.9159 H   0  0  0  0  0  0  0  0  0  0  0  0
   -1.1926   -0.7606   -1.5530 H   0  0  0  0  0  0  0  0  0  0  0  0
   -1.9332   -1.6863   -0.2419 H   0  0  0  0  0  0  0  0  0  0  0  0
   -3.9169    1.6260   -0.5667 H   0  0  0  0  0  0  0  0  0  0  0  0
   -6.2028    1.9959   -1.4570 H   0  0  0  0  0  0  0  0  0  0  0  0
  2  3  1  0
  3  4  2  0
  3  5  2  0
  3  6  1  0
  6  7  2  0
  7  8  1  0
  8  9  2  0
  9 10  1  0
 10 11  1  0
 11 12  2  3
 12 13  1  0
 13 14  1  0
 14 15  1  0
 15 16  2  3
 16 17  1  0
 17 18  1  0
 18 19  2  0
 19 20  1  0
 20 21  2  0
 21 22  1  0
 22 23  2  0
 21 24  1  0
 24 25  2  0
 24 26  2  0
 24 27  1  0
 15 28  1  0
 28 29  1  0
  9 30  1  0
 30 31  2  0
 31  6  1  0
 29 12  1  0
 23 18  1  0
  7 32  1  0
  8 33  1  0
 10 34  1  0
 13 35  1  0
 13 36  1  0
 14 37  1  0
 14 38  1  0
 17 39  1  0
 19 40  1  0
 20 41  1  0
 22 42  1  0
 23 43  1  0
 28 44  1  0
 28 45  1  0
 29 46  1  0
 29 47  1  0
 30 48  1  0
 31 49  1  0
M  CHG  3   1   1   2  -1  27  -1
M  END
>  <Unnamed: 0>  (134) 
842

>  <ID>  (134) 
TRAIN_0842

>  <Canonical_Smiles>  (134) 
[K+].[O-]S(=O)(=O)c1ccc(NN=C2CCC(=NNc3ccc(cc3)S(=O)(=O)[O-])CC2)cc1

>  <Inhibition>  (134) 
0.5

>  <TDC_conf_true_inhibitor>  (134) 
0

>  <TDC_conf_non_inhibitor>  (134) 
1

>  <split>  (134) 
1

$$$$
134
     RDKit          3D

 45 48  0  0  0  0  0  0  0  0999 V2000
   -7.7163   -0.7020   -0.8096 C   0  0  0  0  0  0  0  0  0  0  0  0
   -6.2944   -0.7275   -0.4101 C   0  0  0  0  0  0  0  0  0  0  0  0
   -5.3202    0.2453   -0.3822 C   0  0  0  0  0  0  0  0  0  0  0  0
   -4.1479   -0.3895    0.1044 C   0  0  0  0  0  0  0  0  0  0  0  0
   -4.3912   -1.6770    0.3666 N   0  0  0  0  0  0  0  0  0  0  0  0
   -5.6791   -1.8550    0.0492 N   0  0  0  0  0  0  0  0  0  0  0  0
   -2.9478    0.2229    0.2929 N   0  0  0  0  0  0  0  0  0  0  0  0
   -1.8755   -0.5077    0.9737 C   0  0  0  0  0  0  0  0  0  0  0  0
   -0.8942    0.4629    1.6225 C   0  0  0  0  0  0  0  0  0  0  0  0
   -0.2732    1.4191    0.5958 C   0  0  0  0  0  0  0  0  0  0  0  0
   -1.1717    1.6372   -0.6246 C   0  0  0  0  0  0  0  0  0  0  0  0
   -2.6471    1.5420   -0.2545 C   0  0  0  0  0  0  0  0  0  0  0  0
    1.0457    0.9625    0.1672 N   0  0  0  0  0  0  0  0  0  0  0  0
    2.1718    1.1790    0.9344 C   0  0  0  0  0  0  0  0  0  0  0  0
    2.1581    1.8477    1.9631 O   0  0  0  0  0  0  0  0  0  0  0  0
    3.3864    0.5318    0.4401 C   0  0  0  0  0  0  0  0  0  0  0  0
    3.6312   -0.1729   -0.7792 C   0  0  0  0  0  0  0  0  0  0  0  0
    4.9446   -0.5933   -0.7731 C   0  0  0  0  0  0  0  0  0  0  0  0
    5.7606   -1.3249   -1.6842 C   0  0  0  0  0  0  0  0  0  0  0  0
    7.0469   -1.5746   -1.3697 C   0  0  0  0  0  0  0  0  0  0  0  0
    7.6293   -1.1144   -0.1188 C   0  0  0  0  0  0  0  0  0  0  0  0
    6.8602   -0.4233    0.7392 C   0  0  0  0  0  0  0  0  0  0  0  0
    5.5300   -0.1669    0.4110 N   0  0  0  0  0  0  0  0  0  0  0  0
    4.5861    0.5142    1.1374 C   0  0  0  0  0  0  0  0  0  0  0  0
   -8.0089    0.2945   -1.1554 H   0  0  0  0  0  0  0  0  0  0  0  0
   -8.3594   -0.9695    0.0349 H   0  0  0  0  0  0  0  0  0  0  0  0
   -7.9016   -1.4102   -1.6236 H   0  0  0  0  0  0  0  0  0  0  0  0
   -5.4480    1.2791   -0.6653 H   0  0  0  0  0  0  0  0  0  0  0  0
   -6.0772   -2.7791    0.1753 H   0  0  0  0  0  0  0  0  0  0  0  0
   -1.3544   -1.1533    0.2560 H   0  0  0  0  0  0  0  0  0  0  0  0
   -2.2784   -1.1514    1.7657 H   0  0  0  0  0  0  0  0  0  0  0  0
   -0.1256   -0.0930    2.1719 H   0  0  0  0  0  0  0  0  0  0  0  0
   -1.4406    1.0577    2.3671 H   0  0  0  0  0  0  0  0  0  0  0  0
   -0.1281    2.3855    1.0961 H   0  0  0  0  0  0  0  0  0  0  0  0
   -0.9550    2.6148   -1.0719 H   0  0  0  0  0  0  0  0  0  0  0  0
   -0.9517    0.8910   -1.4005 H   0  0  0  0  0  0  0  0  0  0  0  0
   -2.9096    2.3139    0.4788 H   0  0  0  0  0  0  0  0  0  0  0  0
   -3.2263    1.7399   -1.1640 H   0  0  0  0  0  0  0  0  0  0  0  0
    1.0917    0.2447   -0.5411 H   0  0  0  0  0  0  0  0  0  0  0  0
    2.9332   -0.3515   -1.5858 H   0  0  0  0  0  0  0  0  0  0  0  0
    5.3392   -1.6736   -2.6214 H   0  0  0  0  0  0  0  0  0  0  0  0
    7.6855   -2.1300   -2.0497 H   0  0  0  0  0  0  0  0  0  0  0  0
    8.6689   -1.3375    0.0930 H   0  0  0  0  0  0  0  0  0  0  0  0
    7.2211   -0.0471    1.6877 H   0  0  0  0  0  0  0  0  0  0  0  0
    4.8329    0.9395    2.1017 H   0  0  0  0  0  0  0  0  0  0  0  0
  1  2  1  0
  2  3  2  0
  3  4  1  0
  4  5  2  0
  5  6  1  0
  4  7  1  0
  7  8  1  0
  8  9  1  0
  9 10  1  0
 10 11  1  0
 11 12  1  0
 10 13  1  0
 13 14  1  0
 14 15  2  0
 14 16  1  0
 16 17  1  0
 17 18  2  0
 18 19  1  0
 19 20  2  0
 20 21  1  0
 21 22  2  0
 22 23  1  0
 23 24  1  0
  6  2  1  0
 12  7  1  0
 24 16  2  0
 23 18  1  0
  1 25  1  0
  1 26  1  0
  1 27  1  0
  3 28  1  0
  6 29  1  0
  8 30  1  0
  8 31  1  0
  9 32  1  0
  9 33  1  0
 10 34  1  0
 11 35  1  0
 11 36  1  0
 12 37  1  0
 12 38  1  0
 13 39  1  0
 17 40  1  0
 19 41  1  0
 20 42  1  0
 21 43  1  0
 22 44  1  0
 24 45  1  0
M  END
>  <Unnamed: 0>  (135) 
859

>  <ID>  (135) 
TRAIN_0859

>  <Canonical_Smiles>  (135) 
Cc1cc(n[nH]1)N2CCC(CC2)NC(=O)c3cc4ccccn4c3

>  <Inhibition>  (135) 
17.196902

>  <TDC_conf_true_inhibitor>  (135) 
0

>  <TDC_conf_non_inhibitor>  (135) 
1

>  <split>  (135) 
1

$$$$
135
     RDKit          3D

 45 48  0  0  0  0  0  0  0  0999 V2000
    0.5020    1.0308   -2.3757 O   0  0  0  0  0  0  0  0  0  0  0  0
    0.7547    0.7973   -1.1939 C   0  0  0  0  0  0  0  0  0  0  0  0
    0.1328    1.4768   -0.1328 N   0  0  0  0  0  0  0  0  0  0  0  0
    0.0597    0.9290    1.2370 C   0  0  0  0  0  0  0  0  0  0  0  0
   -1.2699    0.2478    1.6191 C   0  0  0  0  0  0  0  0  0  0  0  0
   -1.6341   -0.9628    0.7709 C   0  0  0  0  0  0  0  0  0  0  0  0
   -0.9776   -2.0992    1.5123 C   0  0  0  0  0  0  0  0  0  0  0  0
   -1.1664   -1.6781    2.9520 C   0  0  0  0  0  0  0  0  0  0  0  0
   -1.1407   -0.2429    2.9727 O   0  0  0  0  0  0  0  0  0  0  0  0
   -0.6869    2.6482   -0.5086 C   0  0  0  0  0  0  0  0  0  0  0  0
   -2.0562    2.2863   -1.0971 C   0  0  0  0  0  0  0  0  0  0  0  0
   -2.7391    3.6051   -1.4222 C   0  0  0  0  0  0  0  0  0  0  0  0
   -2.3104    4.7164   -0.0528 S   0  0  0  0  0  0  0  0  0  0  0  0
   -0.9645    3.6776    0.5932 C   0  0  0  0  0  0  0  0  0  0  0  0
    1.7447   -0.2644   -0.9175 C   0  0  0  0  0  0  0  0  0  0  0  0
    2.8572   -0.0472   -0.0916 C   0  0  0  0  0  0  0  0  0  0  0  0
    3.7695   -1.0715    0.1565 C   0  0  0  0  0  0  0  0  0  0  0  0
    3.6051   -2.3324   -0.4318 C   0  0  0  0  0  0  0  0  0  0  0  0
    2.5229   -2.5560   -1.3060 C   0  0  0  0  0  0  0  0  0  0  0  0
    2.0801   -3.6695   -2.0721 C   0  0  0  0  0  0  0  0  0  0  0  0
    0.9599   -3.2806   -2.7718 C   0  0  0  0  0  0  0  0  0  0  0  0
    0.7063   -1.9713   -2.4624 N   0  0  0  0  0  0  0  0  0  0  0  0
    1.6271   -1.5141   -1.5444 C   0  0  0  0  0  0  0  0  0  0  0  0
    0.8586    0.2065    1.4101 H   0  0  0  0  0  0  0  0  0  0  0  0
    0.2820    1.7399    1.9402 H   0  0  0  0  0  0  0  0  0  0  0  0
   -2.0813    0.9803    1.6140 H   0  0  0  0  0  0  0  0  0  0  0  0
   -1.3391   -0.8929   -0.2775 H   0  0  0  0  0  0  0  0  0  0  0  0
   -2.7221   -1.1046    0.7942 H   0  0  0  0  0  0  0  0  0  0  0  0
   -1.4159   -3.0765    1.2941 H   0  0  0  0  0  0  0  0  0  0  0  0
    0.0899   -2.1422    1.2699 H   0  0  0  0  0  0  0  0  0  0  0  0
   -2.1410   -1.9993    3.3345 H   0  0  0  0  0  0  0  0  0  0  0  0
   -0.3863   -2.0696    3.6107 H   0  0  0  0  0  0  0  0  0  0  0  0
   -0.1179    3.1644   -1.2973 H   0  0  0  0  0  0  0  0  0  0  0  0
   -1.9730    1.6687   -1.9972 H   0  0  0  0  0  0  0  0  0  0  0  0
   -2.6622    1.7171   -0.3846 H   0  0  0  0  0  0  0  0  0  0  0  0
   -3.8229    3.4923   -1.5110 H   0  0  0  0  0  0  0  0  0  0  0  0
   -2.3524    4.0289   -2.3543 H   0  0  0  0  0  0  0  0  0  0  0  0
   -1.3231    3.2269    1.5214 H   0  0  0  0  0  0  0  0  0  0  0  0
   -0.0788    4.2780    0.8200 H   0  0  0  0  0  0  0  0  0  0  0  0
    3.0120    0.9287    0.3632 H   0  0  0  0  0  0  0  0  0  0  0  0
    4.6210   -0.8920    0.8090 H   0  0  0  0  0  0  0  0  0  0  0  0
    4.3212   -3.1249   -0.2324 H   0  0  0  0  0  0  0  0  0  0  0  0
    2.5434   -4.6464   -2.1185 H   0  0  0  0  0  0  0  0  0  0  0  0
    0.3353   -3.8144   -3.4754 H   0  0  0  0  0  0  0  0  0  0  0  0
   -0.0234   -1.3942   -2.8642 H   0  0  0  0  0  0  0  0  0  0  0  0
  1  2  2  0
  2  3  1  0
  3  4  1  0
  4  5  1  0
  5  6  1  0
  6  7  1  0
  7  8  1  0
  8  9  1  0
  3 10  1  0
 10 11  1  0
 11 12  1  0
 12 13  1  0
 13 14  1  0
  2 15  1  0
 15 16  2  0
 16 17  1  0
 17 18  2  0
 18 19  1  0
 19 20  1  0
 20 21  2  0
 21 22  1  0
 22 23  1  0
  9  5  1  0
 14 10  1  0
 23 15  1  0
 23 19  2  0
  4 24  1  0
  4 25  1  0
  5 26  1  0
  6 27  1  0
  6 28  1  0
  7 29  1  0
  7 30  1  0
  8 31  1  0
  8 32  1  0
 10 33  1  0
 11 34  1  0
 11 35  1  0
 12 36  1  0
 12 37  1  0
 14 38  1  0
 14 39  1  0
 16 40  1  0
 17 41  1  0
 18 42  1  0
 20 43  1  0
 21 44  1  0
 22 45  1  0
M  END
>  <Unnamed: 0>  (136) 
860

>  <ID>  (136) 
TRAIN_0860

>  <Canonical_Smiles>  (136) 
O=C(N(CC1CCCO1)C2CCSC2)c3cccc4cc[nH]c34

>  <Inhibition>  (136) 
32.947126

>  <TDC_conf_true_inhibitor>  (136) 
1

>  <TDC_conf_non_inhibitor>  (136) 
0

>  <split>  (136) 
1

$$$$
136
     RDKit          3D

 49 52  0  0  0  0  0  0  0  0999 V2000
    8.0384   -0.8753   -2.6270 C   0  0  0  0  0  0  0  0  0  0  0  0
    7.7550    0.3750   -2.0127 O   0  0  0  0  0  0  0  0  0  0  0  0
    6.6431    0.4362   -1.2137 C   0  0  0  0  0  0  0  0  0  0  0  0
    6.4145    1.6906   -0.6444 C   0  0  0  0  0  0  0  0  0  0  0  0
    5.3191    1.9208    0.1979 C   0  0  0  0  0  0  0  0  0  0  0  0
    4.4355    0.8627    0.4730 C   0  0  0  0  0  0  0  0  0  0  0  0
    3.2569    0.7364    1.2575 C   0  0  0  0  0  0  0  0  0  0  0  0
    2.8013   -0.5667    1.1546 C   0  0  0  0  0  0  0  0  0  0  0  0
    3.6790   -1.2233    0.3212 N   0  0  0  0  0  0  0  0  0  0  0  0
    4.6797   -0.3811   -0.1038 C   0  0  0  0  0  0  0  0  0  0  0  0
    5.7723   -0.6276   -0.9502 C   0  0  0  0  0  0  0  0  0  0  0  0
    1.6620   -1.2261    1.7407 C   0  0  0  0  0  0  0  0  0  0  0  0
    1.3785   -2.4023    1.5537 O   0  0  0  0  0  0  0  0  0  0  0  0
    0.9718   -0.3576    2.5242 O   0  0  0  0  0  0  0  0  0  0  0  0
   -0.2018   -0.8872    3.1471 C   0  0  0  0  0  0  0  0  0  0  0  0
   -1.4090   -0.5818    2.2999 C   0  0  0  0  0  0  0  0  0  0  0  0
   -1.9885    0.6896    2.3200 C   0  0  0  0  0  0  0  0  0  0  0  0
   -3.0974    0.9752    1.5171 C   0  0  0  0  0  0  0  0  0  0  0  0
   -3.6551   -0.0031    0.6735 C   0  0  0  0  0  0  0  0  0  0  0  0
   -3.0539   -1.2646    0.6361 C   0  0  0  0  0  0  0  0  0  0  0  0
   -1.9430   -1.5495    1.4423 C   0  0  0  0  0  0  0  0  0  0  0  0
   -4.7921    0.3473   -0.1257 N   0  0  0  0  0  0  0  0  0  0  0  0
   -5.1636    1.6602   -0.1834 N   0  0  0  0  0  0  0  0  0  0  0  0
   -6.1725    1.7185   -1.0505 C   0  0  0  0  0  0  0  0  0  0  0  0
   -6.7984    3.0206   -1.3797 C   0  0  0  0  0  0  0  0  0  0  0  0
   -6.5148    0.4460   -1.5262 C   0  0  0  0  0  0  0  0  0  0  0  0
   -5.6521   -0.4328   -0.8996 C   0  0  0  0  0  0  0  0  0  0  0  0
   -5.6685   -1.9124   -0.9953 C   0  0  0  0  0  0  0  0  0  0  0  0
    8.2354   -1.6483   -1.8769 H   0  0  0  0  0  0  0  0  0  0  0  0
    7.2309   -1.1756   -3.3029 H   0  0  0  0  0  0  0  0  0  0  0  0
    8.9460   -0.7550   -3.2265 H   0  0  0  0  0  0  0  0  0  0  0  0
    7.0995    2.5079   -0.8589 H   0  0  0  0  0  0  0  0  0  0  0  0
    5.1593    2.9043    0.6292 H   0  0  0  0  0  0  0  0  0  0  0  0
    2.7881    1.5208    1.8385 H   0  0  0  0  0  0  0  0  0  0  0  0
    3.5887   -2.1972    0.0631 H   0  0  0  0  0  0  0  0  0  0  0  0
    5.9145   -1.6143   -1.3723 H   0  0  0  0  0  0  0  0  0  0  0  0
   -0.1166   -1.9599    3.3612 H   0  0  0  0  0  0  0  0  0  0  0  0
   -0.3060   -0.3967    4.1221 H   0  0  0  0  0  0  0  0  0  0  0  0
   -1.5799    1.4720    2.9561 H   0  0  0  0  0  0  0  0  0  0  0  0
   -3.5215    1.9775    1.5659 H   0  0  0  0  0  0  0  0  0  0  0  0
   -3.3827   -2.0521   -0.0273 H   0  0  0  0  0  0  0  0  0  0  0  0
   -1.4851   -2.5363    1.3820 H   0  0  0  0  0  0  0  0  0  0  0  0
   -7.2998    3.4377   -0.5005 H   0  0  0  0  0  0  0  0  0  0  0  0
   -7.5429    2.9107   -2.1748 H   0  0  0  0  0  0  0  0  0  0  0  0
   -6.0438    3.7365   -1.7211 H   0  0  0  0  0  0  0  0  0  0  0  0
   -7.3095    0.1892   -2.2132 H   0  0  0  0  0  0  0  0  0  0  0  0
   -4.8489   -2.2736   -1.6233 H   0  0  0  0  0  0  0  0  0  0  0  0
   -6.6004   -2.2551   -1.4597 H   0  0  0  0  0  0  0  0  0  0  0  0
   -5.6212   -2.3801   -0.0075 H   0  0  0  0  0  0  0  0  0  0  0  0
  1  2  1  0
  2  3  1  0
  3  4  2  0
  4  5  1  0
  5  6  2  0
  6  7  1  0
  7  8  2  0
  8  9  1  0
  9 10  1  0
 10 11  2  0
  8 12  1  0
 12 13  2  0
 12 14  1  0
 14 15  1  0
 15 16  1  0
 16 17  2  0
 17 18  1  0
 18 19  2  0
 19 20  1  0
 20 21  2  0
 19 22  1  0
 22 23  1  0
 23 24  2  0
 24 25  1  0
 24 26  1  0
 26 27  2  0
 27 28  1  0
 11  3  1  0
 10  6  1  0
 21 16  1  0
 27 22  1  0
  1 29  1  0
  1 30  1  0
  1 31  1  0
  4 32  1  0
  5 33  1  0
  7 34  1  0
  9 35  1  0
 11 36  1  0
 15 37  1  0
 15 38  1  0
 17 39  1  0
 18 40  1  0
 20 41  1  0
 21 42  1  0
 25 43  1  0
 25 44  1  0
 25 45  1  0
 26 46  1  0
 28 47  1  0
 28 48  1  0
 28 49  1  0
M  END
>  <Unnamed: 0>  (137) 
881

>  <ID>  (137) 
TRAIN_0881

>  <Canonical_Smiles>  (137) 
COc1ccc2cc([nH]c2c1)C(=O)OCc3ccc(cc3)n4nc(C)cc4C

>  <Inhibition>  (137) 
82.278197

>  <TDC_conf_true_inhibitor>  (137) 
1

>  <TDC_conf_non_inhibitor>  (137) 
0

>  <split>  (137) 
1

$$$$
137
     RDKit          3D

 36 38  0  0  0  0  0  0  0  0999 V2000
   -0.1929   -2.8247   -2.5480 C   0  0  0  0  0  0  0  0  0  0  0  0
   -0.9479   -1.9772   -1.6830 O   0  0  0  0  0  0  0  0  0  0  0  0
   -0.6074   -0.6546   -1.7692 C   0  0  0  0  0  0  0  0  0  0  0  0
    0.2160   -0.2025   -2.5577 O   0  0  0  0  0  0  0  0  0  0  0  0
   -1.4663    0.1653   -0.8039 C   0  0  2  0  0  0  0  0  0  0  0  0
   -2.6848    0.7183   -1.5495 C   0  0  0  0  0  0  0  0  0  0  0  0
   -3.0660    1.9275   -0.7129 C   0  0  1  0  0  0  0  0  0  0  0  0
   -3.8294    1.4759    0.4072 O   0  0  0  0  0  0  0  0  0  0  0  0
   -1.7102    2.5172   -0.2791 C   0  0  0  0  0  0  0  0  0  0  0  0
   -0.7838    1.3865   -0.3173 N   0  0  0  0  0  0  0  0  0  0  0  0
    0.2603    1.2484    0.5718 C   0  0  0  0  0  0  0  0  0  0  0  0
    0.9232    2.3386    1.0790 C   0  0  0  0  0  0  0  0  0  0  0  0
    1.9597    2.0677    1.9336 C   0  0  0  0  0  0  0  0  0  0  0  0
    2.8617    3.3473    2.6410 Cl  0  0  0  0  0  0  0  0  0  0  0  0
    2.3641    0.8460    2.2947 N   0  0  0  0  0  0  0  0  0  0  0  0
    1.6906   -0.1706    1.7438 C   0  0  0  0  0  0  0  0  0  0  0  0
    0.6505    0.0044    0.9023 N   0  0  0  0  0  0  0  0  0  0  0  0
    2.1038   -1.5809    2.0832 C   0  0  0  0  0  0  0  0  0  0  0  0
    2.3951   -2.5716    0.9773 C   0  0  0  0  0  0  0  0  0  0  0  0
    3.5191   -2.0432    1.8171 C   0  0  0  0  0  0  0  0  0  0  0  0
    0.8765   -2.7471   -2.3279 H   0  0  0  0  0  0  0  0  0  0  0  0
   -0.5073   -3.8568   -2.3701 H   0  0  0  0  0  0  0  0  0  0  0  0
   -0.3933   -2.5773   -3.5951 H   0  0  0  0  0  0  0  0  0  0  0  0
   -1.7834   -0.4529    0.0462 H   0  0  0  0  0  0  0  0  0  0  0  0
   -3.4817   -0.0296   -1.6153 H   0  0  0  0  0  0  0  0  0  0  0  0
   -2.4155    1.0304   -2.5662 H   0  0  0  0  0  0  0  0  0  0  0  0
   -3.6751    2.6476   -1.2669 H   0  0  0  0  0  0  0  0  0  0  0  0
   -4.0034    2.2415    0.9815 H   0  0  0  0  0  0  0  0  0  0  0  0
   -1.3742    3.2720   -0.9982 H   0  0  0  0  0  0  0  0  0  0  0  0
   -1.7865    2.9656    0.7176 H   0  0  0  0  0  0  0  0  0  0  0  0
    0.6671    3.3524    0.8118 H   0  0  0  0  0  0  0  0  0  0  0  0
    1.6289   -1.9833    2.9730 H   0  0  0  0  0  0  0  0  0  0  0  0
    2.3244   -2.2310   -0.0501 H   0  0  0  0  0  0  0  0  0  0  0  0
    2.0816   -3.5978    1.1266 H   0  0  0  0  0  0  0  0  0  0  0  0
    3.9751   -2.7078    2.5413 H   0  0  0  0  0  0  0  0  0  0  0  0
    4.2117   -1.3437    1.3615 H   0  0  0  0  0  0  0  0  0  0  0  0
  1  2  1  0
  2  3  1  0
  3  4  2  0
  3  5  1  0
  5  6  1  0
  6  7  1  0
  7  8  1  0
  7  9  1  0
  9 10  1  0
 10 11  1  0
 11 12  2  0
 12 13  1  0
 13 14  1  0
 13 15  2  0
 15 16  1  0
 16 17  2  0
 16 18  1  0
 18 19  1  0
 19 20  1  0
 10  5  1  0
 17 11  1  0
 20 18  1  0
  1 21  1  0
  1 22  1  0
  1 23  1  0
  5 24  1  1
  6 25  1  0
  6 26  1  0
  7 27  1  6
  8 28  1  0
  9 29  1  0
  9 30  1  0
 12 31  1  0
 18 32  1  0
 19 33  1  0
 19 34  1  0
 20 35  1  0
 20 36  1  0
M  END
>  <Unnamed: 0>  (138) 
888

>  <ID>  (138) 
TRAIN_0888

>  <Canonical_Smiles>  (138) 
COC(=O)[C@@H]1C[C@@H](O)CN1c2cc(Cl)nc(n2)C3CC3

>  <Inhibition>  (138) 
26.779542

>  <TDC_conf_true_inhibitor>  (138) 
0

>  <TDC_conf_non_inhibitor>  (138) 
1

>  <split>  (138) 
1

$$$$
138
     RDKit          3D

 48 51  0  0  0  0  0  0  0  0999 V2000
    5.2697    2.1164   -3.8746 C   0  0  0  0  0  0  0  0  0  0  0  0
    4.3807    2.3027   -2.7803 O   0  0  0  0  0  0  0  0  0  0  0  0
    4.0743    1.0629   -2.1355 C   0  0  0  0  0  0  0  0  0  0  0  0
    3.1767    1.3406   -0.9274 C   0  0  0  0  0  0  0  0  0  0  0  0
    2.6729    0.1147   -0.3033 N   0  0  0  0  0  0  0  0  0  0  0  0
    1.4050   -0.3371   -0.6257 C   0  0  0  0  0  0  0  0  0  0  0  0
    0.8760   -1.4577   -0.1061 C   0  0  0  0  0  0  0  0  0  0  0  0
   -0.4893   -1.8467   -0.5630 C   0  0  0  0  0  0  0  0  0  0  0  0
   -0.7332   -2.9608   -1.0110 O   0  0  0  0  0  0  0  0  0  0  0  0
   -1.4378   -0.8750   -0.3993 N   0  0  0  0  0  0  0  0  0  0  0  0
   -2.8095   -1.0841   -0.7907 C   0  0  0  0  0  0  0  0  0  0  0  0
   -3.6173    0.0483   -0.2609 C   0  0  0  0  0  0  0  0  0  0  0  0
   -3.1997    1.2838   -0.0496 N   0  0  0  0  0  0  0  0  0  0  0  0
   -4.2850    1.9582    0.4541 C   0  0  0  0  0  0  0  0  0  0  0  0
   -4.4063    3.2994    0.8425 C   0  0  0  0  0  0  0  0  0  0  0  0
   -5.6397    3.7466    1.3330 C   0  0  0  0  0  0  0  0  0  0  0  0
   -6.7267    2.8735    1.4420 C   0  0  0  0  0  0  0  0  0  0  0  0
   -6.6230    1.5301    1.0615 C   0  0  0  0  0  0  0  0  0  0  0  0
   -5.3847    1.1142    0.5681 C   0  0  0  0  0  0  0  0  0  0  0  0
   -4.9339   -0.0934    0.1023 N   0  0  0  0  0  0  0  0  0  0  0  0
    1.6834   -2.2655    0.8228 C   0  0  0  0  0  0  0  0  0  0  0  0
    1.2021   -3.4454    1.4122 C   0  0  0  0  0  0  0  0  0  0  0  0
    1.9949   -4.1774    2.3021 C   0  0  0  0  0  0  0  0  0  0  0  0
    3.2783   -3.7408    2.6205 C   0  0  0  0  0  0  0  0  0  0  0  0
    3.7728   -2.5703    2.0479 C   0  0  0  0  0  0  0  0  0  0  0  0
    2.9787   -1.8364    1.1544 C   0  0  0  0  0  0  0  0  0  0  0  0
    3.5231   -0.5882    0.5541 C   0  0  0  0  0  0  0  0  0  0  0  0
    4.6697   -0.2317    0.8151 O   0  0  0  0  0  0  0  0  0  0  0  0
    6.2232    1.7073   -3.5274 H   0  0  0  0  0  0  0  0  0  0  0  0
    5.4542    3.0917   -4.3335 H   0  0  0  0  0  0  0  0  0  0  0  0
    4.8252    1.4540   -4.6226 H   0  0  0  0  0  0  0  0  0  0  0  0
    5.0002    0.5680   -1.8192 H   0  0  0  0  0  0  0  0  0  0  0  0
    3.5562    0.4089   -2.8484 H   0  0  0  0  0  0  0  0  0  0  0  0
    2.3353    1.9827   -1.2168 H   0  0  0  0  0  0  0  0  0  0  0  0
    3.7434    1.9145   -0.1835 H   0  0  0  0  0  0  0  0  0  0  0  0
    0.8521    0.2681   -1.3417 H   0  0  0  0  0  0  0  0  0  0  0  0
   -1.2145    0.0251    0.0165 H   0  0  0  0  0  0  0  0  0  0  0  0
   -3.1519   -2.0481   -0.4002 H   0  0  0  0  0  0  0  0  0  0  0  0
   -2.8551   -1.1130   -1.8844 H   0  0  0  0  0  0  0  0  0  0  0  0
   -3.5580    3.9706    0.7625 H   0  0  0  0  0  0  0  0  0  0  0  0
   -5.7487    4.7865    1.6345 H   0  0  0  0  0  0  0  0  0  0  0  0
   -7.6726    3.2454    1.8312 H   0  0  0  0  0  0  0  0  0  0  0  0
   -7.4675    0.8543    1.1476 H   0  0  0  0  0  0  0  0  0  0  0  0
   -5.4762   -0.9432    0.0485 H   0  0  0  0  0  0  0  0  0  0  0  0
    0.2060   -3.8205    1.1849 H   0  0  0  0  0  0  0  0  0  0  0  0
    1.6069   -5.0929    2.7431 H   0  0  0  0  0  0  0  0  0  0  0  0
    3.8940   -4.3118    3.3107 H   0  0  0  0  0  0  0  0  0  0  0  0
    4.7755   -2.2286    2.2977 H   0  0  0  0  0  0  0  0  0  0  0  0
  1  2  1  0
  2  3  1  0
  3  4  1  0
  4  5  1  0
  5  6  1  0
  6  7  2  0
  7  8  1  0
  8  9  2  0
  8 10  1  0
 10 11  1  0
 11 12  1  0
 12 13  2  0
 13 14  1  0
 14 15  2  0
 15 16  1  0
 16 17  2  0
 17 18  1  0
 18 19  2  0
 19 20  1  0
  7 21  1  0
 21 22  2  0
 22 23  1  0
 23 24  2  0
 24 25  1  0
 25 26  2  0
 26 27  1  0
 27 28  2  0
 27  5  1  0
 20 12  1  0
 19 14  1  0
 26 21  1  0
  1 29  1  0
  1 30  1  0
  1 31  1  0
  3 32  1  0
  3 33  1  0
  4 34  1  0
  4 35  1  0
  6 36  1  0
 10 37  1  0
 11 38  1  0
 11 39  1  0
 15 40  1  0
 16 41  1  0
 17 42  1  0
 18 43  1  0
 20 44  1  0
 22 45  1  0
 23 46  1  0
 24 47  1  0
 25 48  1  0
M  END
>  <Unnamed: 0>  (139) 
889

>  <ID>  (139) 
TRAIN_0889

>  <Canonical_Smiles>  (139) 
COCCN1C=C(C(=O)NCc2nc3ccccc3[nH]2)c4ccccc4C1=O

>  <Inhibition>  (139) 
27.323646

>  <TDC_conf_true_inhibitor>  (139) 
1

>  <TDC_conf_non_inhibitor>  (139) 
0

>  <split>  (139) 
1

$$$$
139
     RDKit          3D

 55 59  0  0  0  0  0  0  0  0999 V2000
    6.5388    2.8272    0.2057 C   0  0  0  0  0  0  0  0  0  0  0  0
    6.0707    1.8095   -0.8341 C   0  0  0  0  0  0  0  0  0  0  0  0
    7.2391    1.2841   -1.6676 C   0  0  0  0  0  0  0  0  0  0  0  0
    5.3290    0.7155   -0.2169 N   0  0  0  0  0  0  0  0  0  0  0  0
    5.8990   -0.0341    0.7605 N   0  0  0  0  0  0  0  0  0  0  0  0
    4.9344   -0.8953    1.0976 C   0  0  0  0  0  0  0  0  0  0  0  0
    3.7542   -0.7172    0.3462 C   0  0  0  0  0  0  0  0  0  0  0  0
    2.4799   -1.2993    0.2735 C   0  0  0  0  0  0  0  0  0  0  0  0
    1.5796   -0.7840   -0.6715 C   0  0  0  0  0  0  0  0  0  0  0  0
    0.2381   -1.3691   -0.7481 C   0  0  0  0  0  0  0  0  0  0  0  0
   -0.7310   -0.9984    0.1014 C   0  0  0  0  0  0  0  0  0  0  0  0
   -2.0733   -1.6459    0.0250 C   0  0  0  0  0  0  0  0  0  0  0  0
   -2.1132   -2.9308   -0.1642 N   0  0  0  0  0  0  0  0  0  0  0  0
   -3.3468   -3.5803   -0.1180 C   0  0  0  0  0  0  0  0  0  0  0  0
   -3.3921   -4.9560   -0.3581 C   0  0  0  0  0  0  0  0  0  0  0  0
   -4.6021   -5.6518   -0.2935 C   0  0  0  0  0  0  0  0  0  0  0  0
   -5.7798   -4.9738    0.0150 C   0  0  0  0  0  0  0  0  0  0  0  0
   -5.7452   -3.6010    0.2563 C   0  0  0  0  0  0  0  0  0  0  0  0
   -4.5260   -2.9126    0.1890 C   0  0  0  0  0  0  0  0  0  0  0  0
   -4.4588   -1.4567    0.4131 C   0  0  0  0  0  0  0  0  0  0  0  0
   -5.5084   -0.8721    0.6791 O   0  0  0  0  0  0  0  0  0  0  0  0
   -3.1987   -0.8563    0.2616 N   0  0  0  0  0  0  0  0  0  0  0  0
   -3.1376    0.5804    0.2955 C   0  0  0  0  0  0  0  0  0  0  0  0
   -2.4598    1.2942   -0.7054 C   0  0  0  0  0  0  0  0  0  0  0  0
   -2.3980    2.6922   -0.6750 C   0  0  0  0  0  0  0  0  0  0  0  0
   -3.0236    3.4025    0.3546 C   0  0  0  0  0  0  0  0  0  0  0  0
   -3.7178    2.7041    1.3474 C   0  0  0  0  0  0  0  0  0  0  0  0
   -3.7792    1.3052    1.3114 C   0  0  0  0  0  0  0  0  0  0  0  0
   -2.9367    4.8829    0.3444 C   0  0  0  0  0  0  0  0  0  0  0  0
   -2.4129    5.5590   -0.5216 O   0  0  0  0  0  0  0  0  0  0  0  0
   -3.5025    5.4472    1.4265 O   0  0  0  0  0  0  0  0  0  0  0  0
    2.0107    0.2760   -1.4808 C   0  0  0  0  0  0  0  0  0  0  0  0
    0.9816    0.9811   -2.6758 Cl  0  0  0  0  0  0  0  0  0  0  0  0
    3.2265    0.8732   -1.4411 N   0  0  0  0  0  0  0  0  0  0  0  0
    4.0435    0.3347   -0.5120 C   0  0  0  0  0  0  0  0  0  0  0  0
    7.2669    2.3915    0.9002 H   0  0  0  0  0  0  0  0  0  0  0  0
    5.6945    3.1963    0.7987 H   0  0  0  0  0  0  0  0  0  0  0  0
    7.0112    3.6884   -0.2795 H   0  0  0  0  0  0  0  0  0  0  0  0
    5.3768    2.3221   -1.5114 H   0  0  0  0  0  0  0  0  0  0  0  0
    7.9704    0.7452   -1.0509 H   0  0  0  0  0  0  0  0  0  0  0  0
    7.7586    2.1092   -2.1664 H   0  0  0  0  0  0  0  0  0  0  0  0
    6.8851    0.5916   -2.4421 H   0  0  0  0  0  0  0  0  0  0  0  0
    5.1313   -1.6181    1.8796 H   0  0  0  0  0  0  0  0  0  0  0  0
    2.2070   -2.1221    0.9279 H   0  0  0  0  0  0  0  0  0  0  0  0
    0.0760   -2.1236   -1.5152 H   0  0  0  0  0  0  0  0  0  0  0  0
   -0.5736   -0.2579    0.8798 H   0  0  0  0  0  0  0  0  0  0  0  0
   -2.4739   -5.4881   -0.5931 H   0  0  0  0  0  0  0  0  0  0  0  0
   -4.6223   -6.7224   -0.4823 H   0  0  0  0  0  0  0  0  0  0  0  0
   -6.7232   -5.5123    0.0654 H   0  0  0  0  0  0  0  0  0  0  0  0
   -6.6652   -3.0700    0.4909 H   0  0  0  0  0  0  0  0  0  0  0  0
   -2.0045    0.7789   -1.5483 H   0  0  0  0  0  0  0  0  0  0  0  0
   -1.8709    3.2227   -1.4673 H   0  0  0  0  0  0  0  0  0  0  0  0
   -4.2244    3.2347    2.1504 H   0  0  0  0  0  0  0  0  0  0  0  0
   -4.3277    0.7916    2.0983 H   0  0  0  0  0  0  0  0  0  0  0  0
   -3.3734    6.4081    1.2834 H   0  0  0  0  0  0  0  0  0  0  0  0
  1  2  1  0
  2  3  1  0
  2  4  1  0
  4  5  1  0
  5  6  2  0
  6  7  1  0
  7  8  2  0
  8  9  1  0
  9 10  1  0
 10 11  2  0
 11 12  1  0
 12 13  2  0
 13 14  1  0
 14 15  2  0
 15 16  1  0
 16 17  2  0
 17 18  1  0
 18 19  2  0
 19 20  1  0
 20 21  2  0
 20 22  1  0
 22 23  1  0
 23 24  2  0
 24 25  1  0
 25 26  2  0
 26 27  1  0
 27 28  2  0
 26 29  1  0
 29 30  2  0
 29 31  1  0
  9 32  2  0
 32 33  1  0
 32 34  1  0
 34 35  2  0
 35  4  1  0
 35  7  1  0
 22 12  1  0
 19 14  1  0
 28 23  1  0
  1 36  1  0
  1 37  1  0
  1 38  1  0
  2 39  1  0
  3 40  1  0
  3 41  1  0
  3 42  1  0
  6 43  1  0
  8 44  1  0
 10 45  1  0
 11 46  1  0
 15 47  1  0
 16 48  1  0
 17 49  1  0
 18 50  1  0
 24 51  1  0
 25 52  1  0
 27 53  1  0
 28 54  1  0
 31 55  1  0
M  END
>  <Unnamed: 0>  (140) 
892

>  <ID>  (140) 
TRAIN_0892

>  <Canonical_Smiles>  (140) 
CC(C)n1ncc2cc(\C=C\C3=Nc4ccccc4C(=O)N3c5ccc(cc5)C(=O)O)c(Cl)nc12

>  <Inhibition>  (140) 
21.002432

>  <TDC_conf_true_inhibitor>  (140) 
0

>  <TDC_conf_non_inhibitor>  (140) 
1

>  <split>  (140) 
1

$$$$
140
     RDKit          3D

 44 46  0  0  0  0  0  0  0  0999 V2000
   -7.0547   -2.3731    0.1029 C   0  0  0  0  0  0  0  0  0  0  0  0
   -6.0057   -1.5370   -0.4277 N   0  0  0  0  0  0  0  0  0  0  0  0
   -5.0124   -0.9180    0.2752 C   0  0  0  0  0  0  0  0  0  0  0  0
   -4.2557   -0.2253   -0.6486 C   0  0  0  0  0  0  0  0  0  0  0  0
   -4.8929   -0.5002   -1.8818 C   0  0  0  0  0  0  0  0  0  0  0  0
   -5.9539   -1.3012   -1.7502 N   0  0  0  0  0  0  0  0  0  0  0  0
   -3.0977    0.5968   -0.3414 C   0  0  0  0  0  0  0  0  0  0  0  0
   -2.7901    1.7042   -1.1424 C   0  0  0  0  0  0  0  0  0  0  0  0
   -1.6737    2.4955   -0.8644 C   0  0  0  0  0  0  0  0  0  0  0  0
   -0.8515    2.1894    0.2182 C   0  0  0  0  0  0  0  0  0  0  0  0
   -1.1402    1.0911    1.0385 C   0  0  0  0  0  0  0  0  0  0  0  0
   -0.2306    0.7391    2.1919 C   0  0  0  0  0  0  0  0  0  0  0  0
    0.8165   -0.1586    1.7505 N   0  0  0  0  0  0  0  0  0  0  0  0
    1.9702    0.3710    1.3121 C   0  0  0  0  0  0  0  0  0  0  0  0
    2.7252   -0.4333    0.5093 O   0  0  0  0  0  0  0  0  0  0  0  0
    3.7951    0.3762    0.2254 C   0  0  0  0  0  0  0  0  0  0  0  0
    3.7006    1.5587    0.7974 N   0  0  0  0  0  0  0  0  0  0  0  0
    2.5164    1.5511    1.5046 N   0  0  0  0  0  0  0  0  0  0  0  0
    4.8680   -0.1810   -0.6626 C   0  0  0  0  0  0  0  0  0  0  0  0
    5.9807    0.8622   -0.8688 C   0  0  0  0  0  0  0  0  0  0  0  0
    5.4795   -1.4355   -0.0167 C   0  0  0  0  0  0  0  0  0  0  0  0
    4.2718   -0.5457   -2.0324 C   0  0  0  0  0  0  0  0  0  0  0  0
   -2.2619    0.2965    0.7449 C   0  0  0  0  0  0  0  0  0  0  0  0
   -6.9361   -2.4629    1.1855 H   0  0  0  0  0  0  0  0  0  0  0  0
   -8.0162   -1.9091   -0.1302 H   0  0  0  0  0  0  0  0  0  0  0  0
   -6.9793   -3.3586   -0.3634 H   0  0  0  0  0  0  0  0  0  0  0  0
   -4.9415   -1.0100    1.3496 H   0  0  0  0  0  0  0  0  0  0  0  0
   -4.6240   -0.1537   -2.8713 H   0  0  0  0  0  0  0  0  0  0  0  0
   -3.4199    1.9725   -1.9875 H   0  0  0  0  0  0  0  0  0  0  0  0
   -1.4437    3.3514   -1.4943 H   0  0  0  0  0  0  0  0  0  0  0  0
    0.0231    2.8079    0.4164 H   0  0  0  0  0  0  0  0  0  0  0  0
   -0.8169    0.2363    2.9708 H   0  0  0  0  0  0  0  0  0  0  0  0
    0.1626    1.6486    2.6646 H   0  0  0  0  0  0  0  0  0  0  0  0
    0.4905   -0.9703    1.2400 H   0  0  0  0  0  0  0  0  0  0  0  0
    6.7747    0.4727   -1.5163 H   0  0  0  0  0  0  0  0  0  0  0  0
    6.4407    1.1499    0.0841 H   0  0  0  0  0  0  0  0  0  0  0  0
    5.5912    1.7757   -1.3341 H   0  0  0  0  0  0  0  0  0  0  0  0
    5.9012   -1.2093    0.9699 H   0  0  0  0  0  0  0  0  0  0  0  0
    4.7299   -2.2236    0.1217 H   0  0  0  0  0  0  0  0  0  0  0  0
    6.2826   -1.8492   -0.6372 H   0  0  0  0  0  0  0  0  0  0  0  0
    5.0418   -0.9332   -2.7092 H   0  0  0  0  0  0  0  0  0  0  0  0
    3.4947   -1.3140   -1.9418 H   0  0  0  0  0  0  0  0  0  0  0  0
    3.8130    0.3273   -2.5117 H   0  0  0  0  0  0  0  0  0  0  0  0
   -2.4715   -0.5715    1.3663 H   0  0  0  0  0  0  0  0  0  0  0  0
  1  2  1  0
  2  3  1  0
  3  4  2  0
  4  5  1  0
  5  6  2  0
  4  7  1  0
  7  8  2  0
  8  9  1  0
  9 10  2  0
 10 11  1  0
 11 12  1  0
 12 13  1  0
 13 14  1  0
 14 15  1  0
 15 16  1  0
 16 17  2  0
 17 18  1  0
 16 19  1  0
 19 20  1  0
 19 21  1  0
 19 22  1  0
 11 23  2  0
  6  2  1  0
 23  7  1  0
 18 14  2  0
  1 24  1  0
  1 25  1  0
  1 26  1  0
  3 27  1  0
  5 28  1  0
  8 29  1  0
  9 30  1  0
 10 31  1  0
 12 32  1  0
 12 33  1  0
 13 34  1  0
 20 35  1  0
 20 36  1  0
 20 37  1  0
 21 38  1  0
 21 39  1  0
 21 40  1  0
 22 41  1  0
 22 42  1  0
 22 43  1  0
 23 44  1  0
M  END
>  <Unnamed: 0>  (141) 
894

>  <ID>  (141) 
TRAIN_0894

>  <Canonical_Smiles>  (141) 
Cn1cc(cn1)c2cccc(CNc3oc(nn3)C(C)(C)C)c2

>  <Inhibition>  (141) 
20.397516

>  <TDC_conf_true_inhibitor>  (141) 
0

>  <TDC_conf_non_inhibitor>  (141) 
1

>  <split>  (141) 
1

$$$$
141
     RDKit          3D

 46 49  0  0  0  0  0  0  0  0999 V2000
   -5.3999   -1.8045    2.1384 C   0  0  0  0  0  0  0  0  0  0  0  0
   -6.5539   -1.2300    1.3274 C   0  0  0  0  0  0  0  0  0  0  0  0
   -6.2582   -1.1495   -0.1725 C   0  0  0  0  0  0  0  0  0  0  0  0
   -5.1950   -0.1359   -0.5136 C   0  0  0  0  0  0  0  0  0  0  0  0
   -3.9182   -0.5471   -0.8950 C   0  0  0  0  0  0  0  0  0  0  0  0
   -2.9440    0.4127   -1.1983 C   0  0  0  0  0  0  0  0  0  0  0  0
   -3.3085    1.7601   -1.0989 C   0  0  0  0  0  0  0  0  0  0  0  0
   -4.5974    2.0834   -0.7145 C   0  0  0  0  0  0  0  0  0  0  0  0
   -5.5424    1.1678   -0.4233 N   0  0  0  0  0  0  0  0  0  0  0  0
   -1.5646    0.0790   -1.6072 C   0  0  0  0  0  0  0  0  0  0  0  0
   -0.6280    0.9836   -1.8341 N   0  0  0  0  0  0  0  0  0  0  0  0
    0.5677    0.3863   -2.1950 C   0  0  0  0  0  0  0  0  0  0  0  0
    1.7447    1.2571   -2.4725 C   0  0  0  0  0  0  0  0  0  0  0  0
    2.5582    1.4382   -1.2251 C   0  0  0  0  0  0  0  0  0  0  0  0
    3.5054    0.6153   -0.8525 N   0  0  0  0  0  0  0  0  0  0  0  0
    3.9720    1.1185    0.3212 N   0  0  0  0  0  0  0  0  0  0  0  0
    4.9422    0.7326    1.2040 C   0  0  0  0  0  0  0  0  0  0  0  0
    4.9739    1.6152    2.1974 N   0  0  0  0  0  0  0  0  0  0  0  0
    4.0088    2.5907    1.9569 N   0  0  0  0  0  0  0  0  0  0  0  0
    3.4412    2.2503    0.8368 C   0  0  0  0  0  0  0  0  0  0  0  0
    2.2066    2.8427   -0.1805 S   0  0  0  0  0  0  0  0  0  0  0  0
    5.7871   -0.4852    1.0330 C   0  0  0  0  0  0  0  0  0  0  0  0
    5.5004   -1.4929    2.1460 C   0  0  0  0  0  0  0  0  0  0  0  0
    7.2692   -0.1121    1.0120 C   0  0  0  0  0  0  0  0  0  0  0  0
    0.5255   -0.9918   -2.2511 C   0  0  0  0  0  0  0  0  0  0  0  0
   -1.0365   -1.5476   -1.8361 S   0  0  0  0  0  0  0  0  0  0  0  0
   -5.6969   -1.9145    3.1865 H   0  0  0  0  0  0  0  0  0  0  0  0
   -5.1090   -2.7911    1.7635 H   0  0  0  0  0  0  0  0  0  0  0  0
   -4.5230   -1.1510    2.1077 H   0  0  0  0  0  0  0  0  0  0  0  0
   -7.4315   -1.8716    1.4729 H   0  0  0  0  0  0  0  0  0  0  0  0
   -6.8156   -0.2399    1.7209 H   0  0  0  0  0  0  0  0  0  0  0  0
   -7.1768   -0.8622   -0.7003 H   0  0  0  0  0  0  0  0  0  0  0  0
   -5.9849   -2.1389   -0.5581 H   0  0  0  0  0  0  0  0  0  0  0  0
   -3.7037   -1.6093   -0.9418 H   0  0  0  0  0  0  0  0  0  0  0  0
   -2.5984    2.5524   -1.3173 H   0  0  0  0  0  0  0  0  0  0  0  0
   -4.9121    3.1191   -0.6291 H   0  0  0  0  0  0  0  0  0  0  0  0
    1.4184    2.2290   -2.8579 H   0  0  0  0  0  0  0  0  0  0  0  0
    2.3787    0.7991   -3.2405 H   0  0  0  0  0  0  0  0  0  0  0  0
    5.5506   -0.9659    0.0755 H   0  0  0  0  0  0  0  0  0  0  0  0
    5.7391   -1.0811    3.1333 H   0  0  0  0  0  0  0  0  0  0  0  0
    4.4422   -1.7780    2.1529 H   0  0  0  0  0  0  0  0  0  0  0  0
    6.0929   -2.4037    2.0085 H   0  0  0  0  0  0  0  0  0  0  0  0
    7.5817    0.3523    1.9545 H   0  0  0  0  0  0  0  0  0  0  0  0
    7.8908   -0.9993    0.8513 H   0  0  0  0  0  0  0  0  0  0  0  0
    7.4821    0.5988    0.2055 H   0  0  0  0  0  0  0  0  0  0  0  0
    1.3192   -1.6813   -2.5038 H   0  0  0  0  0  0  0  0  0  0  0  0
  1  2  1  0
  2  3  1  0
  3  4  1  0
  4  5  2  0
  5  6  1  0
  6  7  2  0
  7  8  1  0
  8  9  2  0
  6 10  1  0
 10 11  2  0
 11 12  1  0
 12 13  1  0
 13 14  1  0
 14 15  2  0
 15 16  1  0
 16 17  1  0
 17 18  2  0
 18 19  1  0
 19 20  2  0
 20 21  1  0
 17 22  1  0
 22 23  1  0
 22 24  1  0
 12 25  2  0
 25 26  1  0
  9  4  1  0
 26 10  1  0
 21 14  1  0
 20 16  1  0
  1 27  1  0
  1 28  1  0
  1 29  1  0
  2 30  1  0
  2 31  1  0
  3 32  1  0
  3 33  1  0
  5 34  1  0
  7 35  1  0
  8 36  1  0
 13 37  1  0
 13 38  1  0
 22 39  1  0
 23 40  1  0
 23 41  1  0
 23 42  1  0
 24 43  1  0
 24 44  1  0
 24 45  1  0
 25 46  1  0
M  END
>  <Unnamed: 0>  (142) 
907

>  <ID>  (142) 
TRAIN_0907

>  <Canonical_Smiles>  (142) 
CCCc1cc(ccn1)c2nc(Cc3nn4c(nnc4s3)C(C)C)cs2

>  <Inhibition>  (142) 
37.2331

>  <TDC_conf_true_inhibitor>  (142) 
1

>  <TDC_conf_non_inhibitor>  (142) 
0

>  <split>  (142) 
1

$$$$
142
     RDKit          3D

 35 38  0  0  0  0  0  0  0  0999 V2000
   -0.2546   -3.1876   -1.4506 O   0  0  0  0  0  0  0  0  0  0  0  0
   -0.9432   -2.2726   -1.0136 C   0  0  0  0  0  0  0  0  0  0  0  0
   -0.9104   -1.0003   -1.4900 O   0  0  0  0  0  0  0  0  0  0  0  0
    0.0768   -0.7220   -2.4897 C   0  0  0  0  0  0  0  0  0  0  0  0
    1.1328    0.1239   -1.8478 C   0  0  0  0  0  0  0  0  0  0  0  0
    1.1382    1.4413   -1.8598 N   0  0  0  0  0  0  0  0  0  0  0  0
    2.2354    1.9169   -1.1609 C   0  0  0  0  0  0  0  0  0  0  0  0
    2.5622    3.2735   -0.9602 C   0  0  0  0  0  0  0  0  0  0  0  0
    3.7068    3.6129   -0.2310 C   0  0  0  0  0  0  0  0  0  0  0  0
    4.5246    2.6202    0.2993 C   0  0  0  0  0  0  0  0  0  0  0  0
    4.2215    1.2676    0.1155 C   0  0  0  0  0  0  0  0  0  0  0  0
    3.0710    0.9379   -0.6202 C   0  0  0  0  0  0  0  0  0  0  0  0
    2.4427   -0.6144   -1.0160 S   0  0  0  0  0  0  0  0  0  0  0  0
   -1.8994   -2.4589    0.0744 C   0  0  0  0  0  0  0  0  0  0  0  0
   -2.3036   -3.7212    0.6154 C   0  0  0  0  0  0  0  0  0  0  0  0
   -3.2216   -3.4916    1.6146 C   0  0  0  0  0  0  0  0  0  0  0  0
   -3.3946   -2.1388    1.7157 N   0  0  0  0  0  0  0  0  0  0  0  0
   -2.5851   -1.5043    0.8106 C   0  0  0  0  0  0  0  0  0  0  0  0
   -2.4955    0.0400    0.6674 C   0  0  0  0  0  0  0  0  0  0  0  0
   -2.5031    0.9029    1.9024 C   0  0  0  0  0  0  0  0  0  0  0  0
   -1.2361    0.7327    1.1188 C   0  0  0  0  0  0  0  0  0  0  0  0
   -0.4177   -0.1479   -3.2811 H   0  0  0  0  0  0  0  0  0  0  0  0
    0.4969   -1.6173   -2.9614 H   0  0  0  0  0  0  0  0  0  0  0  0
    1.9202    4.0444   -1.3750 H   0  0  0  0  0  0  0  0  0  0  0  0
    3.9559    4.6608   -0.0800 H   0  0  0  0  0  0  0  0  0  0  0  0
    5.4119    2.8977    0.8648 H   0  0  0  0  0  0  0  0  0  0  0  0
    4.8603    0.4935    0.5297 H   0  0  0  0  0  0  0  0  0  0  0  0
   -1.9538   -4.6937    0.2897 H   0  0  0  0  0  0  0  0  0  0  0  0
   -3.7630   -4.1722    2.2578 H   0  0  0  0  0  0  0  0  0  0  0  0
   -4.0096   -1.6715    2.3689 H   0  0  0  0  0  0  0  0  0  0  0  0
   -2.9891    0.4395   -0.2145 H   0  0  0  0  0  0  0  0  0  0  0  0
   -3.0058    1.8620    1.8452 H   0  0  0  0  0  0  0  0  0  0  0  0
   -2.5466    0.4393    2.8807 H   0  0  0  0  0  0  0  0  0  0  0  0
   -0.8824    1.5673    0.5231 H   0  0  0  0  0  0  0  0  0  0  0  0
   -0.4417    0.1400    1.5577 H   0  0  0  0  0  0  0  0  0  0  0  0
  1  2  2  0
  2  3  1  0
  3  4  1  0
  4  5  1  0
  5  6  2  0
  6  7  1  0
  7  8  2  0
  8  9  1  0
  9 10  2  0
 10 11  1  0
 11 12  2  0
 12 13  1  0
  2 14  1  0
 14 15  1  0
 15 16  2  0
 16 17  1  0
 17 18  1  0
 18 19  1  0
 19 20  1  0
 20 21  1  0
 13  5  1  0
 12  7  1  0
 18 14  2  0
 21 19  1  0
  4 22  1  0
  4 23  1  0
  8 24  1  0
  9 25  1  0
 10 26  1  0
 11 27  1  0
 15 28  1  0
 16 29  1  0
 17 30  1  0
 19 31  1  0
 20 32  1  0
 20 33  1  0
 21 34  1  0
 21 35  1  0
M  END
>  <Unnamed: 0>  (143) 
920

>  <ID>  (143) 
TRAIN_0920

>  <Canonical_Smiles>  (143) 
O=C(OCc1nc2ccccc2s1)c3cc[nH]c3C4CC4

>  <Inhibition>  (143) 
76.379465

>  <TDC_conf_true_inhibitor>  (143) 
1

>  <TDC_conf_non_inhibitor>  (143) 
0

>  <split>  (143) 
1

$$$$
143
     RDKit          3D

 50 53  0  0  0  0  0  0  0  0999 V2000
    0.9497    2.8647    2.3872 C   0  0  0  0  0  0  0  0  0  0  0  0
    1.9455    1.9785    1.7490 C   0  0  0  0  0  0  0  0  0  0  0  0
    1.5229    0.7450    1.3461 O   0  0  0  0  0  0  0  0  0  0  0  0
    2.6031    0.1112    0.7991 C   0  0  0  0  0  0  0  0  0  0  0  0
    2.4028   -1.2744    0.2962 C   0  0  0  0  0  0  0  0  0  0  0  0
    1.8250   -1.2560   -1.0508 N   0  0  0  0  0  0  0  0  0  0  0  0
    2.7060   -0.8646   -2.1352 C   0  0  0  0  0  0  0  0  0  0  0  0
    2.8930   -1.7544   -3.3377 C   0  0  0  0  0  0  0  0  0  0  0  0
    4.0323   -1.5306   -2.3957 C   0  0  0  0  0  0  0  0  0  0  0  0
    0.4580   -1.3911   -1.3263 C   0  0  0  0  0  0  0  0  0  0  0  0
    0.0252   -1.2678   -2.4755 O   0  0  0  0  0  0  0  0  0  0  0  0
   -0.4536   -1.7286   -0.1276 C   0  0  0  0  0  0  0  0  0  0  0  0
   -1.8971   -1.7969   -0.4556 N   0  0  0  0  0  0  0  0  0  0  0  0
   -2.6770   -2.3581    0.6649 C   0  0  0  0  0  0  0  0  0  0  0  0
   -3.5492   -1.3528    1.4344 C   0  0  0  0  0  0  0  0  0  0  0  0
   -2.8841    0.0155    1.5469 C   0  0  0  0  0  0  0  0  0  0  0  0
   -2.5848    0.5772    0.1509 C   0  0  0  0  0  0  0  0  0  0  0  0
   -2.4811   -0.5230   -0.9291 C   0  0  0  0  0  0  0  0  0  0  0  0
   -1.4407    1.4730    0.1696 N   0  0  0  0  0  0  0  0  0  0  0  0
   -1.7592    2.7454   -0.2366 C   0  0  0  0  0  0  0  0  0  0  0  0
   -0.9682    3.6658   -0.3262 O   0  0  0  0  0  0  0  0  0  0  0  0
   -3.0829    2.7984   -0.4971 N   0  0  0  0  0  0  0  0  0  0  0  0
   -3.6678    1.5900   -0.2732 C   0  0  0  0  0  0  0  0  0  0  0  0
   -4.8640    1.3609   -0.3830 O   0  0  0  0  0  0  0  0  0  0  0  0
    3.7088    0.9373    0.8430 C   0  0  0  0  0  0  0  0  0  0  0  0
    3.2824    2.1390    1.4581 C   0  0  0  0  0  0  0  0  0  0  0  0
    1.3150    3.2016    3.3608 H   0  0  0  0  0  0  0  0  0  0  0  0
    0.0013    2.3462    2.5481 H   0  0  0  0  0  0  0  0  0  0  0  0
    0.7698    3.7418    1.7653 H   0  0  0  0  0  0  0  0  0  0  0  0
    3.3608   -1.8034    0.2568 H   0  0  0  0  0  0  0  0  0  0  0  0
    1.7754   -1.8388    0.9902 H   0  0  0  0  0  0  0  0  0  0  0  0
    2.6503    0.2040   -2.3326 H   0  0  0  0  0  0  0  0  0  0  0  0
    2.9164   -1.2749   -4.3087 H   0  0  0  0  0  0  0  0  0  0  0  0
    2.4186   -2.7303   -3.3342 H   0  0  0  0  0  0  0  0  0  0  0  0
    4.3428   -2.3677   -1.7825 H   0  0  0  0  0  0  0  0  0  0  0  0
    4.8522   -0.9092   -2.7412 H   0  0  0  0  0  0  0  0  0  0  0  0
   -0.2805   -1.0192    0.6833 H   0  0  0  0  0  0  0  0  0  0  0  0
   -0.1325   -2.7243    0.2055 H   0  0  0  0  0  0  0  0  0  0  0  0
   -2.0310   -2.8977    1.3729 H   0  0  0  0  0  0  0  0  0  0  0  0
   -3.3430   -3.1266    0.2528 H   0  0  0  0  0  0  0  0  0  0  0  0
   -3.7695   -1.7456    2.4307 H   0  0  0  0  0  0  0  0  0  0  0  0
   -4.5105   -1.2428    0.9273 H   0  0  0  0  0  0  0  0  0  0  0  0
   -1.9575   -0.0894    2.1291 H   0  0  0  0  0  0  0  0  0  0  0  0
   -3.5301    0.6935    2.1181 H   0  0  0  0  0  0  0  0  0  0  0  0
   -3.4808   -0.7570   -1.3196 H   0  0  0  0  0  0  0  0  0  0  0  0
   -1.9468   -0.1380   -1.8043 H   0  0  0  0  0  0  0  0  0  0  0  0
   -0.4754    1.2190    0.3478 H   0  0  0  0  0  0  0  0  0  0  0  0
   -3.5629    3.6329   -0.7889 H   0  0  0  0  0  0  0  0  0  0  0  0
    4.6980    0.6998    0.4700 H   0  0  0  0  0  0  0  0  0  0  0  0
    3.8750    3.0223    1.6577 H   0  0  0  0  0  0  0  0  0  0  0  0
  1  2  1  0
  2  3  1  0
  3  4  1  0
  4  5  1  0
  5  6  1  0
  6  7  1  0
  7  8  1  0
  8  9  1  0
  6 10  1  0
 10 11  2  0
 10 12  1  0
 12 13  1  0
 13 14  1  0
 14 15  1  0
 15 16  1  0
 16 17  1  0
 17 18  1  0
 17 19  1  0
 19 20  1  0
 20 21  2  0
 20 22  1  0
 22 23  1  0
 23 24  2  0
  4 25  2  0
 25 26  1  0
 26  2  2  0
  9  7  1  0
 18 13  1  0
 23 17  1  0
  1 27  1  0
  1 28  1  0
  1 29  1  0
  5 30  1  0
  5 31  1  0
  7 32  1  0
  8 33  1  0
  8 34  1  0
  9 35  1  0
  9 36  1  0
 12 37  1  0
 12 38  1  0
 14 39  1  0
 14 40  1  0
 15 41  1  0
 15 42  1  0
 16 43  1  0
 16 44  1  0
 18 45  1  0
 18 46  1  0
 19 47  1  0
 22 48  1  0
 25 49  1  0
 26 50  1  0
M  END
>  <Unnamed: 0>  (144) 
923

>  <ID>  (144) 
TRAIN_0923

>  <Canonical_Smiles>  (144) 
Cc1oc(CN(C2CC2)C(=O)CN3CCCC4(C3)NC(=O)NC4=O)cc1

>  <Inhibition>  (144) 
14.860453

>  <TDC_conf_true_inhibitor>  (144) 
0

>  <TDC_conf_non_inhibitor>  (144) 
1

>  <split>  (144) 
1

$$$$
144
     RDKit          3D

 38 41  0  0  0  0  0  0  0  0999 V2000
    5.5155    1.6028   -2.3663 C   0  0  0  0  0  0  0  0  0  0  0  0
    4.2669    1.3015   -1.6436 C   0  0  0  0  0  0  0  0  0  0  0  0
    3.1817    2.0703   -1.7373 N   0  0  0  0  0  0  0  0  0  0  0  0
    2.2648    1.4266   -0.9136 O   0  0  0  0  0  0  0  0  0  0  0  0
    2.8801    0.3066   -0.3818 C   0  0  0  0  0  0  0  0  0  0  0  0
    4.1282    0.2143   -0.8247 N   0  0  0  0  0  0  0  0  0  0  0  0
    2.2305   -0.5930    0.5085 C   0  0  0  0  0  0  0  0  0  0  0  0
    2.8624   -1.6841    0.9894 C   0  0  0  0  0  0  0  0  0  0  0  0
    2.2082   -2.6167    1.8907 C   0  0  0  0  0  0  0  0  0  0  0  0
    0.9397   -2.4013    2.2663 C   0  0  0  0  0  0  0  0  0  0  0  0
    0.2884   -1.2970    1.7936 N   0  0  0  0  0  0  0  0  0  0  0  0
   -1.0067   -0.8991    2.0323 C   0  0  0  0  0  0  0  0  0  0  0  0
   -1.8542   -1.4576    2.7119 O   0  0  0  0  0  0  0  0  0  0  0  0
   -1.1487    0.2918    1.3092 N   0  0  0  0  0  0  0  0  0  0  0  0
   -2.3782    1.0229    1.1286 C   0  0  0  0  0  0  0  0  0  0  0  0
   -3.0821    0.5156   -0.0760 C   0  0  0  0  0  0  0  0  0  0  0  0
   -4.0903   -0.4234   -0.1434 C   0  0  0  0  0  0  0  0  0  0  0  0
   -4.8054   -1.2426    0.8537 C   0  0  0  0  0  0  0  0  0  0  0  0
   -4.4524   -0.6090   -1.4392 O   0  0  0  0  0  0  0  0  0  0  0  0
   -3.6874    0.2006   -2.2541 N   0  0  0  0  0  0  0  0  0  0  0  0
   -2.8631    0.8675   -1.4373 C   0  0  0  0  0  0  0  0  0  0  0  0
   -1.8698    1.8125   -2.0014 C   0  0  0  0  0  0  0  0  0  0  0  0
    0.0145    0.5878    0.6219 N   0  0  0  0  0  0  0  0  0  0  0  0
    0.8255   -0.3748    0.9442 C   0  0  0  0  0  0  0  0  0  0  0  0
    5.9082    2.5794   -2.0666 H   0  0  0  0  0  0  0  0  0  0  0  0
    5.3422    1.6149   -3.4468 H   0  0  0  0  0  0  0  0  0  0  0  0
    6.2810    0.8500   -2.1541 H   0  0  0  0  0  0  0  0  0  0  0  0
    3.8903   -1.9093    0.7124 H   0  0  0  0  0  0  0  0  0  0  0  0
    2.7632   -3.4815    2.2409 H   0  0  0  0  0  0  0  0  0  0  0  0
    0.3895   -3.0597    2.9311 H   0  0  0  0  0  0  0  0  0  0  0  0
   -2.1412    2.0877    1.0347 H   0  0  0  0  0  0  0  0  0  0  0  0
   -2.9983    0.8949    2.0223 H   0  0  0  0  0  0  0  0  0  0  0  0
   -4.2869   -2.1943    1.0037 H   0  0  0  0  0  0  0  0  0  0  0  0
   -5.8273   -1.4567    0.5251 H   0  0  0  0  0  0  0  0  0  0  0  0
   -4.8652   -0.7276    1.8170 H   0  0  0  0  0  0  0  0  0  0  0  0
   -1.7101    2.6629   -1.3316 H   0  0  0  0  0  0  0  0  0  0  0  0
   -2.2031    2.2094   -2.9661 H   0  0  0  0  0  0  0  0  0  0  0  0
   -0.9106    1.3077   -2.1534 H   0  0  0  0  0  0  0  0  0  0  0  0
  1  2  1  0
  2  3  2  0
  3  4  1  0
  4  5  1  0
  5  6  2  0
  5  7  1  0
  7  8  2  0
  8  9  1  0
  9 10  2  0
 10 11  1  0
 11 12  1  0
 12 13  2  0
 12 14  1  0
 14 15  1  0
 15 16  1  0
 16 17  2  0
 17 18  1  0
 17 19  1  0
 19 20  1  0
 20 21  2  0
 21 22  1  0
 14 23  1  0
 23 24  2  0
  6  2  1  0
 24  7  1  0
 24 11  1  0
 21 16  1  0
  1 25  1  0
  1 26  1  0
  1 27  1  0
  8 28  1  0
  9 29  1  0
 10 30  1  0
 15 31  1  0
 15 32  1  0
 18 33  1  0
 18 34  1  0
 18 35  1  0
 22 36  1  0
 22 37  1  0
 22 38  1  0
M  END
>  <Unnamed: 0>  (145) 
925

>  <ID>  (145) 
TRAIN_0925

>  <Canonical_Smiles>  (145) 
Cc1noc(n1)C2=CC=CN3C(=O)N(Cc4c(C)onc4C)N=C23

>  <Inhibition>  (145) 
16.833917

>  <TDC_conf_true_inhibitor>  (145) 
0

>  <TDC_conf_non_inhibitor>  (145) 
1

>  <split>  (145) 
1

$$$$
145
     RDKit          3D

 45 47  0  0  0  0  0  0  0  0999 V2000
   -4.2516   -4.0902   -0.8771 C   0  0  0  0  0  0  0  0  0  0  0  0
   -3.3837   -3.6003    0.2664 C   0  0  0  0  0  0  0  0  0  0  0  0
   -2.8322   -2.3129   -0.0504 O   0  0  0  0  0  0  0  0  0  0  0  0
   -3.5914   -1.2446    0.2817 C   0  0  0  0  0  0  0  0  0  0  0  0
   -4.7088   -1.2715    0.7719 O   0  0  0  0  0  0  0  0  0  0  0  0
   -2.9362    0.0057   -0.1111 C   0  0  0  0  0  0  0  0  0  0  0  0
   -3.7186    1.0723   -0.4920 C   0  0  0  0  0  0  0  0  0  0  0  0
   -3.2228    2.2691   -0.8759 N   0  0  0  0  0  0  0  0  0  0  0  0
   -1.8862    2.3986   -0.8596 C   0  0  0  0  0  0  0  0  0  0  0  0
   -1.1535    3.9329   -1.3661 S   0  0  0  0  0  0  0  0  0  0  0  0
   -2.6281    4.9736   -1.4886 C   0  0  0  0  0  0  0  0  0  0  0  0
   -1.0388    1.4296   -0.4874 N   0  0  0  0  0  0  0  0  0  0  0  0
   -1.5794    0.2459   -0.1136 C   0  0  0  0  0  0  0  0  0  0  0  0
   -0.7335   -0.7575    0.3517 O   0  0  0  0  0  0  0  0  0  0  0  0
    0.6173   -0.5165    0.2667 C   0  0  0  0  0  0  0  0  0  0  0  0
    1.2659   -0.7537   -0.9479 C   0  0  0  0  0  0  0  0  0  0  0  0
    2.6418   -0.5389   -1.0617 C   0  0  0  0  0  0  0  0  0  0  0  0
    3.3874   -0.0948    0.0368 C   0  0  0  0  0  0  0  0  0  0  0  0
    4.8338    0.1647   -0.0281 C   0  0  0  0  0  0  0  0  0  0  0  0
    5.4583    0.5912    1.0790 C   0  0  0  0  0  0  0  0  0  0  0  0
    4.7744    0.8133    2.3601 C   0  0  0  0  0  0  0  0  0  0  0  0
    5.3949    1.1996    3.3438 O   0  0  0  0  0  0  0  0  0  0  0  0
    3.4157    0.5612    2.3899 O   0  0  0  0  0  0  0  0  0  0  0  0
    2.7125    0.1091    1.2489 C   0  0  0  0  0  0  0  0  0  0  0  0
    1.3332   -0.1159    1.4002 C   0  0  0  0  0  0  0  0  0  0  0  0
    0.6464    0.1397    2.7107 C   0  0  0  0  0  0  0  0  0  0  0  0
    5.5827   -0.0430   -1.3118 C   0  0  0  0  0  0  0  0  0  0  0  0
   -5.1019   -3.4202   -1.0394 H   0  0  0  0  0  0  0  0  0  0  0  0
   -4.6324   -5.0948   -0.6725 H   0  0  0  0  0  0  0  0  0  0  0  0
   -3.6806   -4.1120   -1.8111 H   0  0  0  0  0  0  0  0  0  0  0  0
   -2.5401   -4.2835    0.4090 H   0  0  0  0  0  0  0  0  0  0  0  0
   -3.9410   -3.5734    1.2098 H   0  0  0  0  0  0  0  0  0  0  0  0
   -4.8043    1.0014   -0.5079 H   0  0  0  0  0  0  0  0  0  0  0  0
   -3.1497    5.0239   -0.5287 H   0  0  0  0  0  0  0  0  0  0  0  0
   -2.3248    5.9869   -1.7662 H   0  0  0  0  0  0  0  0  0  0  0  0
   -3.3073    4.5984   -2.2593 H   0  0  0  0  0  0  0  0  0  0  0  0
    0.6991   -1.0915   -1.8113 H   0  0  0  0  0  0  0  0  0  0  0  0
    3.1080   -0.7188   -2.0266 H   0  0  0  0  0  0  0  0  0  0  0  0
    6.5217    0.8015    1.0945 H   0  0  0  0  0  0  0  0  0  0  0  0
    1.2849   -0.1424    3.5543 H   0  0  0  0  0  0  0  0  0  0  0  0
    0.3896    1.2000    2.7964 H   0  0  0  0  0  0  0  0  0  0  0  0
   -0.2696   -0.4517    2.8086 H   0  0  0  0  0  0  0  0  0  0  0  0
    5.1872    0.6036   -2.1023 H   0  0  0  0  0  0  0  0  0  0  0  0
    5.5141   -1.0863   -1.6379 H   0  0  0  0  0  0  0  0  0  0  0  0
    6.6477    0.1923   -1.2049 H   0  0  0  0  0  0  0  0  0  0  0  0
  1  2  1  0
  2  3  1  0
  3  4  1  0
  4  5  2  0
  4  6  1  0
  6  7  2  0
  7  8  1  0
  8  9  2  0
  9 10  1  0
 10 11  1  0
  9 12  1  0
 12 13  2  0
 13 14  1  0
 14 15  1  0
 15 16  2  0
 16 17  1  0
 17 18  2  0
 18 19  1  0
 19 20  2  0
 20 21  1  0
 21 22  2  0
 21 23  1  0
 23 24  1  0
 24 25  2  0
 25 26  1  0
 19 27  1  0
 13  6  1  0
 25 15  1  0
 24 18  1  0
  1 28  1  0
  1 29  1  0
  1 30  1  0
  2 31  1  0
  2 32  1  0
  7 33  1  0
 11 34  1  0
 11 35  1  0
 11 36  1  0
 16 37  1  0
 17 38  1  0
 20 39  1  0
 26 40  1  0
 26 41  1  0
 26 42  1  0
 27 43  1  0
 27 44  1  0
 27 45  1  0
M  END
>  <Unnamed: 0>  (146) 
931

>  <ID>  (146) 
TRAIN_0931

>  <Canonical_Smiles>  (146) 
CCOC(=O)c1cnc(SC)nc1Oc2ccc3C(=CC(=O)Oc3c2C)C

>  <Inhibition>  (146) 
28.668375

>  <TDC_conf_true_inhibitor>  (146) 
0

>  <TDC_conf_non_inhibitor>  (146) 
1

>  <split>  (146) 
1

$$$$
146
     RDKit          3D

 25 26  0  0  0  0  0  0  0  0999 V2000
   -3.4649    1.5779    0.7005 N   0  0  0  0  0  0  0  0  0  0  0  0
   -3.0184    0.9300   -0.4534 C   0  0  0  0  0  0  0  0  0  0  0  0
   -3.8355    1.0085   -1.5127 N   0  0  0  0  0  0  0  0  0  0  0  0
   -3.4451    0.3864   -2.6317 C   0  0  0  0  0  0  0  0  0  0  0  0
   -2.3149   -0.3109   -2.7864 N   0  0  0  0  0  0  0  0  0  0  0  0
   -1.5215   -0.3634   -1.7023 C   0  0  0  0  0  0  0  0  0  0  0  0
   -1.8054    0.2554   -0.4966 C   0  0  0  0  0  0  0  0  0  0  0  0
   -0.8994    0.1292    0.6917 C   0  0  0  0  0  0  0  0  0  0  0  0
    0.4477   -0.1452    0.2825 O   0  0  0  0  0  0  0  0  0  0  0  0
    1.3238   -0.2663    1.3243 C   0  0  0  0  0  0  0  0  0  0  0  0
    0.9901   -0.1561    2.4964 O   0  0  0  0  0  0  0  0  0  0  0  0
    2.6820   -0.5377    0.8662 C   0  0  0  0  0  0  0  0  0  0  0  0
    3.0997   -0.6397   -0.5142 C   0  0  0  0  0  0  0  0  0  0  0  0
    4.4401   -0.9021   -0.6290 C   0  0  0  0  0  0  0  0  0  0  0  0
    5.3247   -1.0959   -2.0863 Cl  0  0  0  0  0  0  0  0  0  0  0  0
    5.2257   -1.0321    0.8586 S   0  0  0  0  0  0  0  0  0  0  0  0
    3.7722   -0.7364    1.6917 C   0  0  0  0  0  0  0  0  0  0  0  0
    3.8437   -0.7254    3.4136 Cl  0  0  0  0  0  0  0  0  0  0  0  0
   -2.8384    2.3306    0.9659 H   0  0  0  0  0  0  0  0  0  0  0  0
   -3.5631    0.9309    1.4757 H   0  0  0  0  0  0  0  0  0  0  0  0
   -4.1077    0.4530   -3.4872 H   0  0  0  0  0  0  0  0  0  0  0  0
   -0.6154   -0.9466   -1.8436 H   0  0  0  0  0  0  0  0  0  0  0  0
   -0.8983    1.0678    1.2580 H   0  0  0  0  0  0  0  0  0  0  0  0
   -1.2640   -0.6891    1.3244 H   0  0  0  0  0  0  0  0  0  0  0  0
    2.4420   -0.5228   -1.3679 H   0  0  0  0  0  0  0  0  0  0  0  0
  1  2  1  0
  2  3  2  0
  3  4  1  0
  4  5  2  0
  5  6  1  0
  6  7  2  0
  7  8  1  0
  8  9  1  0
  9 10  1  0
 10 11  2  0
 10 12  1  0
 12 13  1  0
 13 14  2  0
 14 15  1  0
 14 16  1  0
 16 17  1  0
 17 18  1  0
  7  2  1  0
 17 12  2  0
  1 19  1  0
  1 20  1  0
  4 21  1  0
  6 22  1  0
  8 23  1  0
  8 24  1  0
 13 25  1  0
M  END
>  <Unnamed: 0>  (147) 
936

>  <ID>  (147) 
TRAIN_0936

>  <Canonical_Smiles>  (147) 
Nc1ncncc1COC(=O)c2cc(Cl)sc2Cl

>  <Inhibition>  (147) 
65.741075

>  <TDC_conf_true_inhibitor>  (147) 
1

>  <TDC_conf_non_inhibitor>  (147) 
0

>  <split>  (147) 
1

$$$$
147
     RDKit          3D

 45 49  0  0  0  0  0  0  0  0999 V2000
   -1.6503    4.4435    2.1387 O   0  0  0  0  0  0  0  0  0  0  0  0
   -2.0879    3.3224    1.8997 C   0  0  0  0  0  0  0  0  0  0  0  0
   -3.4022    3.0080    2.2274 O   0  0  0  0  0  0  0  0  0  0  0  0
   -4.0088    1.8071    1.8291 C   0  0  0  0  0  0  0  0  0  0  0  0
   -5.3567    1.6717    2.1382 C   0  0  0  0  0  0  0  0  0  0  0  0
   -6.0262    0.5240    1.7297 C   0  0  0  0  0  0  0  0  0  0  0  0
   -5.3615   -0.4753    1.0011 C   0  0  0  0  0  0  0  0  0  0  0  0
   -6.0773   -1.6053    0.5701 C   0  0  0  0  0  0  0  0  0  0  0  0
   -5.4590   -2.6070   -0.1739 C   0  0  0  0  0  0  0  0  0  0  0  0
   -4.1114   -2.4988   -0.4874 C   0  0  0  0  0  0  0  0  0  0  0  0
   -3.3789   -1.3887   -0.0521 C   0  0  0  0  0  0  0  0  0  0  0  0
   -3.9779   -0.3414    0.6946 C   0  0  0  0  0  0  0  0  0  0  0  0
   -3.2955    0.8272    1.1405 C   0  0  0  0  0  0  0  0  0  0  0  0
   -1.8686    1.0823    0.9380 C   0  0  0  0  0  0  0  0  0  0  0  0
   -1.2706    2.2391    1.2769 C   0  0  0  0  0  0  0  0  0  0  0  0
    0.1397    2.4382    1.0643 C   0  0  0  0  0  0  0  0  0  0  0  0
    0.7797    3.6320    0.8031 C   0  0  0  0  0  0  0  0  0  0  0  0
    2.4636    3.3733    0.6255 S   0  0  0  0  0  0  0  0  0  0  0  0
    2.2308    1.6740    0.8958 C   0  0  0  0  0  0  0  0  0  0  0  0
    0.9731    1.3269    1.0932 N   0  0  0  0  0  0  0  0  0  0  0  0
    3.3541    0.8029    0.9034 C   0  0  0  0  0  0  0  0  0  0  0  0
    3.7624    0.2516   -0.2545 C   0  0  0  0  0  0  0  0  0  0  0  0
    4.8044   -0.6266   -0.4811 N   0  0  0  0  0  0  0  0  0  0  0  0
    4.9876   -1.3619   -1.6722 C   0  0  0  0  0  0  0  0  0  0  0  0
    6.1508   -2.1207   -1.8085 C   0  0  0  0  0  0  0  0  0  0  0  0
    6.3889   -2.8085   -2.9958 C   0  0  0  0  0  0  0  0  0  0  0  0
    5.4689   -2.7083   -4.0314 C   0  0  0  0  0  0  0  0  0  0  0  0
    4.3466   -1.9261   -3.8272 C   0  0  0  0  0  0  0  0  0  0  0  0
    4.0938   -1.2557   -2.6817 N   0  0  0  0  0  0  0  0  0  0  0  0
    3.9909    0.5036    2.1390 C   0  0  0  0  0  0  0  0  0  0  0  0
    4.5435    0.2244    3.1201 N   0  0  0  0  0  0  0  0  0  0  0  0
   -5.8812    2.4517    2.6858 H   0  0  0  0  0  0  0  0  0  0  0  0
   -7.0832    0.4236    1.9743 H   0  0  0  0  0  0  0  0  0  0  0  0
   -7.1360   -1.7097    0.8065 H   0  0  0  0  0  0  0  0  0  0  0  0
   -6.0319   -3.4687   -0.5107 H   0  0  0  0  0  0  0  0  0  0  0  0
   -3.6247   -3.2758   -1.0773 H   0  0  0  0  0  0  0  0  0  0  0  0
   -2.3290   -1.3511   -0.3277 H   0  0  0  0  0  0  0  0  0  0  0  0
   -1.2692    0.2922    0.4963 H   0  0  0  0  0  0  0  0  0  0  0  0
    0.3684    4.6300    0.7191 H   0  0  0  0  0  0  0  0  0  0  0  0
    3.2355    0.5030   -1.1757 H   0  0  0  0  0  0  0  0  0  0  0  0
    5.2103   -1.0662    0.3403 H   0  0  0  0  0  0  0  0  0  0  0  0
    6.8778   -2.1716   -1.0010 H   0  0  0  0  0  0  0  0  0  0  0  0
    7.2934   -3.4013   -3.1134 H   0  0  0  0  0  0  0  0  0  0  0  0
    5.6248   -3.2200   -4.9745 H   0  0  0  0  0  0  0  0  0  0  0  0
    3.5989   -1.8043   -4.6041 H   0  0  0  0  0  0  0  0  0  0  0  0
  1  2  2  0
  2  3  1  0
  3  4  1  0
  4  5  2  0
  5  6  1  0
  6  7  2  0
  7  8  1  0
  8  9  2  0
  9 10  1  0
 10 11  2  0
 11 12  1  0
 12 13  2  0
 13 14  1  0
 14 15  2  0
 15 16  1  0
 16 17  2  0
 17 18  1  0
 18 19  1  0
 19 20  2  0
 19 21  1  0
 21 22  2  0
 22 23  1  0
 23 24  1  0
 24 25  2  0
 25 26  1  0
 26 27  2  0
 27 28  1  0
 28 29  2  0
 21 30  1  0
 30 31  3  0
 15  2  1  0
 13  4  1  0
 12  7  1  0
 20 16  1  0
 29 24  1  0
  5 32  1  0
  6 33  1  0
  8 34  1  0
  9 35  1  0
 10 36  1  0
 11 37  1  0
 14 38  1  0
 17 39  1  0
 22 40  1  0
 23 41  1  0
 25 42  1  0
 26 43  1  0
 27 44  1  0
 28 45  1  0
M  END
>  <Unnamed: 0>  (148) 
937

>  <ID>  (148) 
TRAIN_0937

>  <Canonical_Smiles>  (148) 
O=C1Oc2ccc3ccccc3c2C=C1c4csc(n4)\C(=C\Nc5ccccn5)\C#N

>  <Inhibition>  (148) 
47.311663

>  <TDC_conf_true_inhibitor>  (148) 
1

>  <TDC_conf_non_inhibitor>  (148) 
0

>  <split>  (148) 
1

$$$$
148
     RDKit          3D

 47 49  0  0  0  0  0  0  0  0999 V2000
   -0.4852   -1.3130    0.7995 C   0  0  0  0  0  0  0  0  0  0  0  0
   -0.6055   -0.8362   -0.6011 N   0  0  0  0  0  0  0  0  0  0  0  0
   -1.9475   -1.1469   -1.1783 C   0  0  0  0  0  0  0  0  0  0  0  0
   -3.0709   -0.3705   -0.5143 C   0  0  0  0  0  0  0  0  0  0  0  0
   -3.0379    1.0340   -0.5911 C   0  0  0  0  0  0  0  0  0  0  0  0
   -4.0364    1.8123   -0.0059 C   0  0  0  0  0  0  0  0  0  0  0  0
   -5.0895    1.2049    0.6789 C   0  0  0  0  0  0  0  0  0  0  0  0
   -6.1853    2.0344    1.2799 C   0  0  0  0  0  0  0  0  0  0  0  0
   -5.1400   -0.1932    0.7456 C   0  0  0  0  0  0  0  0  0  0  0  0
   -4.1405   -0.9924    0.1616 C   0  0  0  0  0  0  0  0  0  0  0  0
   -4.2539   -2.4882    0.2740 C   0  0  0  0  0  0  0  0  0  0  0  0
    0.6626   -1.3335   -1.6336 S   0  0  0  0  0  6  0  0  0  0  0  0
    0.4422   -0.7591   -2.9432 O   0  0  0  0  0  0  0  0  0  0  0  0
    0.8262   -2.7613   -1.4563 O   0  0  0  0  0  0  0  0  0  0  0  0
    2.0808   -0.5114   -0.9447 C   0  0  0  0  0  0  0  0  0  0  0  0
    2.1015    0.8985   -0.9323 C   0  0  0  0  0  0  0  0  0  0  0  0
    3.1987    1.5813   -0.3998 C   0  0  0  0  0  0  0  0  0  0  0  0
    4.2449    0.8274    0.1010 C   0  0  0  0  0  0  0  0  0  0  0  0
    5.4402    1.2620    0.6792 N   0  0  0  0  0  0  0  0  0  0  0  0
    5.7985    2.6440    0.8559 C   0  0  0  0  0  0  0  0  0  0  0  0
    6.2435    0.1828    1.0568 C   0  0  0  0  0  0  0  0  0  0  0  0
    7.3425    0.2292    1.5875 O   0  0  0  0  0  0  0  0  0  0  0  0
    5.4908   -1.0985    0.6838 C   0  0  0  0  0  0  0  0  0  0  0  0
    4.2241   -0.5692    0.0819 C   0  0  0  0  0  0  0  0  0  0  0  0
    3.1479   -1.2644   -0.4411 C   0  0  0  0  0  0  0  0  0  0  0  0
   -1.1976   -0.7856    1.4410 H   0  0  0  0  0  0  0  0  0  0  0  0
   -0.6790   -2.3876    0.8692 H   0  0  0  0  0  0  0  0  0  0  0  0
    0.5067   -1.1001    1.2057 H   0  0  0  0  0  0  0  0  0  0  0  0
   -2.1155   -2.2277   -1.1310 H   0  0  0  0  0  0  0  0  0  0  0  0
   -1.9756   -0.8760   -2.2409 H   0  0  0  0  0  0  0  0  0  0  0  0
   -2.2211    1.5276   -1.1152 H   0  0  0  0  0  0  0  0  0  0  0  0
   -3.9846    2.8953   -0.0897 H   0  0  0  0  0  0  0  0  0  0  0  0
   -6.5990    1.5487    2.1699 H   0  0  0  0  0  0  0  0  0  0  0  0
   -6.9877    2.1798    0.5500 H   0  0  0  0  0  0  0  0  0  0  0  0
   -5.8084    3.0144    1.5912 H   0  0  0  0  0  0  0  0  0  0  0  0
   -5.9742   -0.6668    1.2614 H   0  0  0  0  0  0  0  0  0  0  0  0
   -4.3448   -2.9375   -0.7199 H   0  0  0  0  0  0  0  0  0  0  0  0
   -5.1373   -2.7841    0.8500 H   0  0  0  0  0  0  0  0  0  0  0  0
   -3.3785   -2.8989    0.7870 H   0  0  0  0  0  0  0  0  0  0  0  0
    1.2615    1.4584   -1.3400 H   0  0  0  0  0  0  0  0  0  0  0  0
    3.2173    2.6652   -0.3894 H   0  0  0  0  0  0  0  0  0  0  0  0
    5.8354    3.1361   -0.1205 H   0  0  0  0  0  0  0  0  0  0  0  0
    6.7795    2.7283    1.3317 H   0  0  0  0  0  0  0  0  0  0  0  0
    5.0539    3.1331    1.4908 H   0  0  0  0  0  0  0  0  0  0  0  0
    6.0718   -1.6650   -0.0482 H   0  0  0  0  0  0  0  0  0  0  0  0
    5.2883   -1.6806    1.5863 H   0  0  0  0  0  0  0  0  0  0  0  0
    3.1371   -2.3502   -0.4605 H   0  0  0  0  0  0  0  0  0  0  0  0
  1  2  1  0
  2  3  1  0
  3  4  1  0
  4  5  2  0
  5  6  1  0
  6  7  2  0
  7  8  1  0
  7  9  1  0
  9 10  2  0
 10 11  1  0
  2 12  1  0
 12 13  2  0
 12 14  2  0
 12 15  1  0
 15 16  2  0
 16 17  1  0
 17 18  2  0
 18 19  1  0
 19 20  1  0
 19 21  1  0
 21 22  2  0
 21 23  1  0
 23 24  1  0
 24 25  2  0
 10  4  1  0
 25 15  1  0
 24 18  1  0
  1 26  1  0
  1 27  1  0
  1 28  1  0
  3 29  1  0
  3 30  1  0
  5 31  1  0
  6 32  1  0
  8 33  1  0
  8 34  1  0
  8 35  1  0
  9 36  1  0
 11 37  1  0
 11 38  1  0
 11 39  1  0
 16 40  1  0
 17 41  1  0
 20 42  1  0
 20 43  1  0
 20 44  1  0
 23 45  1  0
 23 46  1  0
 25 47  1  0
M  END
>  <Unnamed: 0>  (149) 
941

>  <ID>  (149) 
TRAIN_0941

>  <Canonical_Smiles>  (149) 
CN(Cc1ccc(C)cc1C)S(=O)(=O)c2ccc3N(C)C(=O)Cc3c2

>  <Inhibition>  (149) 
65.697758

>  <TDC_conf_true_inhibitor>  (149) 
1

>  <TDC_conf_non_inhibitor>  (149) 
0

>  <split>  (149) 
1

$$$$
149
     RDKit          3D

 40 42  0  0  0  0  0  0  0  0999 V2000
    3.7166    3.3884   -0.4654 C   0  0  0  0  0  0  0  0  0  0  0  0
    4.1408    2.0365   -0.3607 O   0  0  0  0  0  0  0  0  0  0  0  0
    3.1728    1.0721   -0.2264 C   0  0  0  0  0  0  0  0  0  0  0  0
    1.7966    1.3305   -0.1920 C   0  0  0  0  0  0  0  0  0  0  0  0
    0.8591    0.3140   -0.0559 C   0  0  0  0  0  0  0  0  0  0  0  0
   -0.4391    0.6322   -0.0215 N   0  0  0  0  0  0  0  0  0  0  0  0
   -1.3452   -0.3472    0.1176 C   0  0  0  0  0  0  0  0  0  0  0  0
   -1.0031   -1.6398    0.2083 N   0  0  0  0  0  0  0  0  0  0  0  0
    0.2973   -1.9509    0.1584 C   0  0  0  0  0  0  0  0  0  0  0  0
    0.5801   -3.3213    0.2449 N   0  0  0  0  0  0  0  0  0  0  0  0
    1.3096   -0.9989    0.0393 C   0  0  0  0  0  0  0  0  0  0  0  0
    2.6980   -1.2802    0.0181 C   0  0  0  0  0  0  0  0  0  0  0  0
    3.6304   -0.2509   -0.1128 C   0  0  0  0  0  0  0  0  0  0  0  0
    4.9892   -0.4303   -0.1475 O   0  0  0  0  0  0  0  0  0  0  0  0
    5.4893   -1.7373    0.0971 C   0  0  0  0  0  0  0  0  0  0  0  0
   -2.6783   -0.0089    0.1863 N   0  0  0  0  0  0  0  0  0  0  0  0
   -3.6849   -1.0474   -0.0278 C   0  0  0  0  0  0  0  0  0  0  0  0
   -4.9216   -0.4856   -0.7665 C   0  0  0  0  0  0  0  0  0  0  0  0
   -5.5374    0.7099   -0.1644 N   0  0  0  0  0  0  0  0  0  0  0  0
   -4.5217    1.6007    0.4342 C   0  0  0  0  0  0  0  0  0  0  0  0
   -3.0675    1.3807   -0.0396 C   0  0  0  0  0  0  0  0  0  0  0  0
    3.1855    3.7068    0.4377 H   0  0  0  0  0  0  0  0  0  0  0  0
    4.6101    4.0125   -0.5623 H   0  0  0  0  0  0  0  0  0  0  0  0
    3.1053    3.5423   -1.3606 H   0  0  0  0  0  0  0  0  0  0  0  0
    1.4127    2.3428   -0.2686 H   0  0  0  0  0  0  0  0  0  0  0  0
   -0.3175   -3.7979    0.2990 H   0  0  0  0  0  0  0  0  0  0  0  0
    1.1122   -3.6327   -0.5601 H   0  0  0  0  0  0  0  0  0  0  0  0
    3.0152   -2.3129    0.1162 H   0  0  0  0  0  0  0  0  0  0  0  0
    5.1880   -2.4281   -0.6971 H   0  0  0  0  0  0  0  0  0  0  0  0
    6.5823   -1.6834    0.0931 H   0  0  0  0  0  0  0  0  0  0  0  0
    5.1780   -2.1041    1.0808 H   0  0  0  0  0  0  0  0  0  0  0  0
   -3.9899   -1.4508    0.9452 H   0  0  0  0  0  0  0  0  0  0  0  0
   -3.3004   -1.8808   -0.6286 H   0  0  0  0  0  0  0  0  0  0  0  0
   -5.6827   -1.2696   -0.8509 H   0  0  0  0  0  0  0  0  0  0  0  0
   -4.6322   -0.2298   -1.7939 H   0  0  0  0  0  0  0  0  0  0  0  0
   -6.1762    0.4207    0.5761 H   0  0  0  0  0  0  0  0  0  0  0  0
   -4.8158    2.6382    0.2425 H   0  0  0  0  0  0  0  0  0  0  0  0
   -4.5508    1.4601    1.5227 H   0  0  0  0  0  0  0  0  0  0  0  0
   -2.4276    2.0691    0.5261 H   0  0  0  0  0  0  0  0  0  0  0  0
   -2.9772    1.6310   -1.1041 H   0  0  0  0  0  0  0  0  0  0  0  0
  1  2  1  0
  2  3  1  0
  3  4  2  0
  4  5  1  0
  5  6  2  0
  6  7  1  0
  7  8  2  0
  8  9  1  0
  9 10  1  0
  9 11  2  0
 11 12  1  0
 12 13  2  0
 13 14  1  0
 14 15  1  0
  7 16  1  0
 16 17  1  0
 17 18  1  0
 18 19  1  0
 19 20  1  0
 20 21  1  0
 13  3  1  0
 11  5  1  0
 21 16  1  0
  1 22  1  0
  1 23  1  0
  1 24  1  0
  4 25  1  0
 10 26  1  0
 10 27  1  0
 12 28  1  0
 15 29  1  0
 15 30  1  0
 15 31  1  0
 17 32  1  0
 17 33  1  0
 18 34  1  0
 18 35  1  0
 19 36  1  0
 20 37  1  0
 20 38  1  0
 21 39  1  0
 21 40  1  0
M  END
>  <Unnamed: 0>  (150) 
946

>  <ID>  (150) 
TRAIN_0946

>  <Canonical_Smiles>  (150) 
COc1cc2nc(nc(N)c2cc1OC)N3CCNCC3

>  <Inhibition>  (150) 
45.017688

>  <TDC_conf_true_inhibitor>  (150) 
0

>  <TDC_conf_non_inhibitor>  (150) 
1

>  <split>  (150) 
1

$$$$
150
     RDKit          3D

 42 46  0  0  0  0  0  0  0  0999 V2000
   -0.4492   -2.5257   -0.2281 O   0  0  0  0  0  0  0  0  0  0  0  0
   -1.1087   -1.3160   -0.3490 C   0  0  0  0  0  0  0  0  0  0  0  0
   -0.4471   -0.1612   -0.5141 C   0  0  0  0  0  0  0  0  0  0  0  0
    1.0255   -0.1803   -0.5959 C   0  0  0  0  0  0  0  0  0  0  0  0
    1.6148   -0.0864   -1.6692 O   0  0  0  0  0  0  0  0  0  0  0  0
    1.5996   -0.3142    0.6440 N   0  0  0  0  0  0  0  0  0  0  0  0
    2.8796   -0.2229    0.7081 C   0  0  0  0  0  0  0  0  0  0  0  0
    3.8361   -0.0059   -0.2497 N   0  0  0  0  0  0  0  0  0  0  0  0
    5.1568   -0.0207    0.2013 C   0  0  0  0  0  0  0  0  0  0  0  0
    6.3046    0.1603   -0.5574 C   0  0  0  0  0  0  0  0  0  0  0  0
    6.2160    0.4140   -2.2577 Cl  0  0  0  0  0  0  0  0  0  0  0  0
    7.5539    0.1331    0.0719 C   0  0  0  0  0  0  0  0  0  0  0  0
    7.6493   -0.0702    1.4579 C   0  0  0  0  0  0  0  0  0  0  0  0
    6.4981   -0.2469    2.2277 C   0  0  0  0  0  0  0  0  0  0  0  0
    5.2698   -0.2172    1.5866 C   0  0  0  0  0  0  0  0  0  0  0  0
    3.6530   -0.4099    2.3152 S   0  0  0  0  0  0  0  0  0  0  0  0
   -1.1564    1.1339   -0.5986 C   0  0  0  0  0  0  0  0  0  0  0  0
   -0.5282    2.1724   -0.8023 O   0  0  0  0  0  0  0  0  0  0  0  0
   -2.5349    1.1135   -0.4064 N   0  0  0  0  0  0  0  0  0  0  0  0
   -3.2606    2.3750   -0.5054 C   0  0  0  0  0  0  0  0  0  0  0  0
   -4.5663    2.3656    0.2705 C   0  0  0  0  0  0  0  0  0  0  0  0
   -5.4380    1.2200   -0.2138 C   0  0  0  0  0  0  0  0  0  0  0  0
   -4.6743   -0.0775   -0.2024 C   0  0  0  0  0  0  0  0  0  0  0  0
   -5.3855   -1.2836   -0.1557 C   0  0  0  0  0  0  0  0  0  0  0  0
   -4.7102   -2.4992   -0.1835 C   0  0  0  0  0  0  0  0  0  0  0  0
   -3.3173   -2.5221   -0.2502 C   0  0  0  0  0  0  0  0  0  0  0  0
   -2.5796   -1.3277   -0.2854 C   0  0  0  0  0  0  0  0  0  0  0  0
   -3.2682   -0.1009   -0.2914 C   0  0  0  0  0  0  0  0  0  0  0  0
   -0.8805   -3.0338    0.4810 H   0  0  0  0  0  0  0  0  0  0  0  0
    3.5853    0.0681   -1.2294 H   0  0  0  0  0  0  0  0  0  0  0  0
    8.4618    0.2716   -0.5108 H   0  0  0  0  0  0  0  0  0  0  0  0
    8.6273   -0.0877    1.9344 H   0  0  0  0  0  0  0  0  0  0  0  0
    6.5654   -0.4016    3.3000 H   0  0  0  0  0  0  0  0  0  0  0  0
   -3.4393    2.5677   -1.5708 H   0  0  0  0  0  0  0  0  0  0  0  0
   -2.6300    3.1907   -0.1333 H   0  0  0  0  0  0  0  0  0  0  0  0
   -5.0913    3.3187    0.1440 H   0  0  0  0  0  0  0  0  0  0  0  0
   -4.3566    2.2477    1.3415 H   0  0  0  0  0  0  0  0  0  0  0  0
   -5.7850    1.4141   -1.2359 H   0  0  0  0  0  0  0  0  0  0  0  0
   -6.3207    1.1473    0.4323 H   0  0  0  0  0  0  0  0  0  0  0  0
   -6.4727   -1.2794   -0.1088 H   0  0  0  0  0  0  0  0  0  0  0  0
   -5.2695   -3.4318   -0.1626 H   0  0  0  0  0  0  0  0  0  0  0  0
   -2.8267   -3.4907   -0.3009 H   0  0  0  0  0  0  0  0  0  0  0  0
  1  2  1  0
  2  3  2  0
  3  4  1  0
  4  5  2  0
  4  6  1  0
  6  7  2  0
  7  8  1  0
  8  9  1  0
  9 10  2  0
 10 11  1  0
 10 12  1  0
 12 13  2  0
 13 14  1  0
 14 15  2  0
 15 16  1  0
  3 17  1  0
 17 18  2  0
 17 19  1  0
 19 20  1  0
 20 21  1  0
 21 22  1  0
 22 23  1  0
 23 24  1  0
 24 25  2  0
 25 26  1  0
 26 27  2  0
 27 28  1  0
 27  2  1  0
 16  7  1  0
 15  9  1  0
 28 19  1  0
 28 23  2  0
  1 29  1  0
  8 30  1  0
 12 31  1  0
 13 32  1  0
 14 33  1  0
 20 34  1  0
 20 35  1  0
 21 36  1  0
 21 37  1  0
 22 38  1  0
 22 39  1  0
 24 40  1  0
 25 41  1  0
 26 42  1  0
M  END
>  <Unnamed: 0>  (151) 
948

>  <ID>  (151) 
TRAIN_0948

>  <Canonical_Smiles>  (151) 
OC1=C(C(=O)\N=C\2/Nc3c(Cl)cccc3S2)C(=O)N4CCCc5cccc1c45

>  <Inhibition>  (151) 
39.412699

>  <TDC_conf_true_inhibitor>  (151) 
0

>  <TDC_conf_non_inhibitor>  (151) 
1

>  <split>  (151) 
1

$$$$
151
     RDKit          3D

 46 50  0  0  0  0  0  0  0  0999 V2000
    7.0607    2.0396    0.2234 C   0  0  0  0  0  0  0  0  0  0  0  0
    5.7945    1.2281    0.2442 C   0  0  0  0  0  0  0  0  0  0  0  0
    4.5545    1.8886    0.2860 C   0  0  0  0  0  0  0  0  0  0  0  0
    3.3666    1.1581    0.3052 C   0  0  0  0  0  0  0  0  0  0  0  0
    2.1906    1.8747    0.3538 O   0  0  0  0  0  0  0  0  0  0  0  0
    1.0404    1.1371    0.3236 C   0  0  0  0  0  0  0  0  0  0  0  0
    0.9247   -0.1870    0.2799 C   0  0  0  0  0  0  0  0  0  0  0  0
   -0.4762   -0.6670    0.2640 C   0  0  0  0  0  0  0  0  0  0  0  0
   -1.1889    0.5922    0.4399 N   0  0  0  0  0  0  0  0  0  0  0  0
   -0.3273    1.6887    0.4154 C   0  0  0  0  0  0  0  0  0  0  0  0
   -0.5455    2.8849    0.4794 O   0  0  0  0  0  0  0  0  0  0  0  0
   -2.5469    0.6499    0.6872 C   0  0  0  0  0  0  0  0  0  0  0  0
   -3.2914   -0.4263    0.8060 N   0  0  0  0  0  0  0  0  0  0  0  0
   -4.6141   -0.0816    1.0324 C   0  0  0  0  0  0  0  0  0  0  0  0
   -5.6126   -1.1729    1.1780 C   0  0  0  0  0  0  0  0  0  0  0  0
   -4.8505    1.2803    1.0964 C   0  0  0  0  0  0  0  0  0  0  0  0
   -6.1166    2.0260    1.3224 C   0  0  0  0  0  0  0  0  0  0  0  0
   -3.3798    2.1272    0.8594 S   0  0  0  0  0  0  0  0  0  0  0  0
   -0.8207   -1.3941   -1.0264 C   0  0  0  0  0  0  0  0  0  0  0  0
   -0.7573   -2.7930   -1.0655 C   0  0  0  0  0  0  0  0  0  0  0  0
   -1.0426   -3.4470   -2.2540 C   0  0  0  0  0  0  0  0  0  0  0  0
   -1.3831   -2.8145   -3.3958 N   0  0  0  0  0  0  0  0  0  0  0  0
   -1.4387   -1.4680   -3.3463 C   0  0  0  0  0  0  0  0  0  0  0  0
   -1.1637   -0.7235   -2.2087 C   0  0  0  0  0  0  0  0  0  0  0  0
    2.1340   -0.9993    0.3122 C   0  0  0  0  0  0  0  0  0  0  0  0
    2.0959   -2.2182    0.3834 O   0  0  0  0  0  0  0  0  0  0  0  0
    3.4048   -0.2412    0.2839 C   0  0  0  0  0  0  0  0  0  0  0  0
    4.6269   -0.9134    0.2452 C   0  0  0  0  0  0  0  0  0  0  0  0
    5.8152   -0.1789    0.2245 C   0  0  0  0  0  0  0  0  0  0  0  0
    7.3026   -1.0558    0.1757 Cl  0  0  0  0  0  0  0  0  0  0  0  0
    7.6315    1.8330   -0.6876 H   0  0  0  0  0  0  0  0  0  0  0  0
    7.6738    1.8127    1.1015 H   0  0  0  0  0  0  0  0  0  0  0  0
    6.8485    3.1140    0.2404 H   0  0  0  0  0  0  0  0  0  0  0  0
    4.5099    2.9762    0.3045 H   0  0  0  0  0  0  0  0  0  0  0  0
   -0.6812   -1.2974    1.1388 H   0  0  0  0  0  0  0  0  0  0  0  0
   -5.1402   -2.1540    1.0671 H   0  0  0  0  0  0  0  0  0  0  0  0
   -6.0828   -1.1321    2.1655 H   0  0  0  0  0  0  0  0  0  0  0  0
   -6.3919   -1.0835    0.4147 H   0  0  0  0  0  0  0  0  0  0  0  0
   -6.3608    2.6454    0.4529 H   0  0  0  0  0  0  0  0  0  0  0  0
   -6.9561    1.3445    1.4922 H   0  0  0  0  0  0  0  0  0  0  0  0
   -6.0338    2.6755    2.2002 H   0  0  0  0  0  0  0  0  0  0  0  0
   -0.4773   -3.3716   -0.1897 H   0  0  0  0  0  0  0  0  0  0  0  0
   -0.9988   -4.5304   -2.3193 H   0  0  0  0  0  0  0  0  0  0  0  0
   -1.7179   -0.9829   -4.2774 H   0  0  0  0  0  0  0  0  0  0  0  0
   -1.2302    0.3582   -2.2590 H   0  0  0  0  0  0  0  0  0  0  0  0
    4.6516   -2.0010    0.2307 H   0  0  0  0  0  0  0  0  0  0  0  0
  1  2  1  0
  2  3  2  0
  3  4  1  0
  4  5  1  0
  5  6  1  0
  6  7  2  0
  7  8  1  0
  8  9  1  0
  9 10  1  0
 10 11  2  0
  9 12  1  0
 12 13  2  0
 13 14  1  0
 14 15  1  0
 14 16  2  0
 16 17  1  0
 16 18  1  0
  8 19  1  0
 19 20  2  0
 20 21  1  0
 21 22  2  0
 22 23  1  0
 23 24  2  0
  7 25  1  0
 25 26  2  0
 25 27  1  0
 27 28  1  0
 28 29  2  0
 29 30  1  0
 29  2  1  0
 27  4  2  0
 10  6  1  0
 18 12  1  0
 24 19  1  0
  1 31  1  0
  1 32  1  0
  1 33  1  0
  3 34  1  0
  8 35  1  0
 15 36  1  0
 15 37  1  0
 15 38  1  0
 17 39  1  0
 17 40  1  0
 17 41  1  0
 20 42  1  0
 21 43  1  0
 23 44  1  0
 24 45  1  0
 28 46  1  0
M  END
>  <Unnamed: 0>  (152) 
949

>  <ID>  (152) 
TRAIN_0949

>  <Canonical_Smiles>  (152) 
Cc1cc2OC3=C(C(N(C3=O)c4nc(C)c(C)s4)c5ccncc5)C(=O)c2cc1Cl

>  <Inhibition>  (152) 
45.17471

>  <TDC_conf_true_inhibitor>  (152) 
1

>  <TDC_conf_non_inhibitor>  (152) 
0

>  <split>  (152) 
1

$$$$
152
     RDKit          3D

 55 59  0  0  0  0  0  0  0  0999 V2000
    0.8052    6.2404    0.7355 C   0  0  0  0  0  0  0  0  0  0  0  0
    0.6597    4.8210    0.7574 O   0  0  0  0  0  0  0  0  0  0  0  0
    0.2536    4.3017   -0.4226 C   0  0  0  0  0  0  0  0  0  0  0  0
    0.0177    4.8930   -1.4602 O   0  0  0  0  0  0  0  0  0  0  0  0
    0.1525    2.8187   -0.2905 C   0  0  0  0  0  0  0  0  0  0  0  0
    1.0905    1.9422   -0.4140 N   0  0  0  0  0  0  0  0  0  0  0  0
    0.5610    0.6727   -0.2041 N   0  0  0  0  0  0  0  0  0  0  0  0
    1.4237   -0.4315   -0.2703 C   0  0  0  0  0  0  0  0  0  0  0  0
    2.7702   -0.2640   -0.6463 C   0  0  0  0  0  0  0  0  0  0  0  0
    3.6706   -1.3376   -0.7224 C   0  0  0  0  0  0  0  0  0  0  0  0
    3.2445   -2.6259   -0.4251 C   0  0  0  0  0  0  0  0  0  0  0  0
    4.0084   -3.7583   -0.4557 O   0  0  0  0  0  0  0  0  0  0  0  0
    5.3574   -3.6091   -0.8796 C   0  0  0  0  0  0  0  0  0  0  0  0
    1.9166   -2.8213   -0.0564 C   0  0  0  0  0  0  0  0  0  0  0  0
    1.0221   -1.7436    0.0169 C   0  0  0  0  0  0  0  0  0  0  0  0
   -0.8580    0.6326    0.2750 C   0  0  0  0  0  0  0  0  0  0  0  0
   -1.4661    2.3974    0.0924 S   0  0  0  0  0  0  0  0  0  0  0  0
   -1.7851   -0.2803   -0.4652 N   0  0  0  0  0  0  0  0  0  0  0  0
   -2.9882   -0.6647    0.1096 N   0  0  0  0  0  0  0  0  0  0  0  0
   -3.1075   -0.6764    1.4000 C   0  0  0  0  0  0  0  0  0  0  0  0
   -4.4424   -1.1039    1.9644 C   0  0  0  0  0  0  0  0  0  0  0  0
   -2.0148   -0.3097    2.3267 C   0  0  0  0  0  0  0  0  0  0  0  0
   -2.0920   -0.5860    3.6995 C   0  0  0  0  0  0  0  0  0  0  0  0
   -1.0511   -0.2144    4.5493 C   0  0  0  0  0  0  0  0  0  0  0  0
    0.0652    0.4345    4.0347 C   0  0  0  0  0  0  0  0  0  0  0  0
    0.1441    0.7080    2.6686 C   0  0  0  0  0  0  0  0  0  0  0  0
   -0.8915    0.3280    1.7860 C   0  0  0  0  0  0  0  0  0  0  0  0
   -1.7375   -0.5054   -1.8609 C   0  0  0  0  0  0  0  0  0  0  0  0
   -2.4929   -1.5646   -2.4151 C   0  0  0  0  0  0  0  0  0  0  0  0
   -2.4931   -1.8593   -3.7836 C   0  0  0  0  0  0  0  0  0  0  0  0
   -1.7307   -1.0949   -4.6538 C   0  0  0  0  0  0  0  0  0  0  0  0
   -0.9776   -0.0427   -4.1496 C   0  0  0  0  0  0  0  0  0  0  0  0
   -0.9849    0.2444   -2.7756 C   0  0  0  0  0  0  0  0  0  0  0  0
   -0.1546    6.7209    0.5206 H   0  0  0  0  0  0  0  0  0  0  0  0
    1.1399    6.5625    1.7255 H   0  0  0  0  0  0  0  0  0  0  0  0
    1.5605    6.5379    0.0009 H   0  0  0  0  0  0  0  0  0  0  0  0
    3.1436    0.7277   -0.8940 H   0  0  0  0  0  0  0  0  0  0  0  0
    4.6912   -1.1228   -1.0192 H   0  0  0  0  0  0  0  0  0  0  0  0
    5.4104   -3.2259   -1.9041 H   0  0  0  0  0  0  0  0  0  0  0  0
    5.9194   -2.9718   -0.1889 H   0  0  0  0  0  0  0  0  0  0  0  0
    5.8221   -4.5998   -0.8706 H   0  0  0  0  0  0  0  0  0  0  0  0
    1.5631   -3.8242    0.1707 H   0  0  0  0  0  0  0  0  0  0  0  0
    0.0001   -1.9799    0.2968 H   0  0  0  0  0  0  0  0  0  0  0  0
   -5.1984   -1.1209    1.1729 H   0  0  0  0  0  0  0  0  0  0  0  0
   -4.7756   -0.4031    2.7348 H   0  0  0  0  0  0  0  0  0  0  0  0
   -4.3585   -2.1101    2.3846 H   0  0  0  0  0  0  0  0  0  0  0  0
   -2.9490   -1.0966    4.1295 H   0  0  0  0  0  0  0  0  0  0  0  0
   -1.1105   -0.4330    5.6129 H   0  0  0  0  0  0  0  0  0  0  0  0
    0.8801    0.7249    4.6942 H   0  0  0  0  0  0  0  0  0  0  0  0
    1.0347    1.2136    2.2972 H   0  0  0  0  0  0  0  0  0  0  0  0
   -3.0961   -2.1931   -1.7626 H   0  0  0  0  0  0  0  0  0  0  0  0
   -3.0891   -2.6866   -4.1577 H   0  0  0  0  0  0  0  0  0  0  0  0
   -1.7233   -1.3155   -5.7171 H   0  0  0  0  0  0  0  0  0  0  0  0
   -0.3777    0.5662   -4.8213 H   0  0  0  0  0  0  0  0  0  0  0  0
   -0.3820    1.0888   -2.4701 H   0  0  0  0  0  0  0  0  0  0  0  0
  1  2  1  0
  2  3  1  0
  3  4  2  0
  3  5  1  0
  5  6  2  0
  6  7  1  0
  7  8  1  0
  8  9  2  0
  9 10  1  0
 10 11  2  0
 11 12  1  0
 12 13  1  0
 11 14  1  0
 14 15  2  0
  7 16  1  0
 16 17  1  0
 16 18  1  0
 18 19  1  0
 19 20  2  0
 20 21  1  0
 20 22  1  0
 22 23  2  0
 23 24  1  0
 24 25  2  0
 25 26  1  0
 26 27  2  0
 18 28  1  0
 28 29  2  0
 29 30  1  0
 30 31  2  0
 31 32  1  0
 32 33  2  0
 17  5  1  0
 15  8  1  0
 27 16  1  0
 27 22  1  0
 33 28  1  0
  1 34  1  0
  1 35  1  0
  1 36  1  0
  9 37  1  0
 10 38  1  0
 13 39  1  0
 13 40  1  0
 13 41  1  0
 14 42  1  0
 15 43  1  0
 21 44  1  0
 21 45  1  0
 21 46  1  0
 23 47  1  0
 24 48  1  0
 25 49  1  0
 26 50  1  0
 29 51  1  0
 30 52  1  0
 31 53  1  0
 32 54  1  0
 33 55  1  0
M  END
>  <Unnamed: 0>  (153) 
966

>  <ID>  (153) 
TRAIN_0966

>  <Canonical_Smiles>  (153) 
COC(=O)C1=NN(c2ccc(OC)cc2)C3(S1)N(N=C(C)c4ccccc34)c5ccccc5

>  <Inhibition>  (153) 
25.1

>  <TDC_conf_true_inhibitor>  (153) 
1

>  <TDC_conf_non_inhibitor>  (153) 
0

>  <split>  (153) 
1

$$$$
153
     RDKit          3D

 56 59  0  0  0  0  0  0  0  0999 V2000
   -4.1051    0.0514    3.9352 O   0  0  0  0  0  0  0  0  0  0  0  0
   -4.5879    0.5139    2.7661 C   0  0  0  0  0  0  0  0  0  0  0  0
   -5.6661    0.1317    2.3471 O   0  0  0  0  0  0  0  0  0  0  0  0
   -3.6774    1.5220    2.1228 C   0  0  0  0  0  0  0  0  0  0  0  0
   -2.5017    0.9119    1.3395 C   0  0  0  0  0  0  0  0  0  0  0  0
   -1.5388    0.1344    2.2676 C   0  0  0  0  0  0  0  0  0  0  0  0
   -0.3040   -0.3379    1.6453 N   0  0  0  0  0  0  0  0  0  0  0  0
    0.8215    0.5326    1.3257 C   0  0  0  0  0  0  0  0  0  0  0  0
    1.9392   -0.4578    1.1999 C   0  0  0  0  0  0  0  0  0  0  0  0
    1.5384   -1.7130    1.4140 C   0  0  0  0  0  0  0  0  0  0  0  0
    2.2721   -2.8597    1.4729 O   0  0  0  0  0  0  0  0  0  0  0  0
    0.0989   -1.6573    1.7428 C   0  0  0  0  0  0  0  0  0  0  0  0
   -0.5351   -2.6365    2.0970 O   0  0  0  0  0  0  0  0  0  0  0  0
    3.3118    0.0255    0.9818 C   0  0  0  0  0  0  0  0  0  0  0  0
    3.6585    1.0917    1.4864 O   0  0  0  0  0  0  0  0  0  0  0  0
    4.2634   -0.7488    0.1465 C   0  0  0  0  0  0  0  0  0  0  0  0
    5.6304   -0.6484    0.4363 C   0  0  0  0  0  0  0  0  0  0  0  0
    6.5658   -1.3327   -0.3417 C   0  0  0  0  0  0  0  0  0  0  0  0
    6.1410   -2.1089   -1.4191 C   0  0  0  0  0  0  0  0  0  0  0  0
    4.7830   -2.1967   -1.7249 C   0  0  0  0  0  0  0  0  0  0  0  0
    3.8436   -1.5132   -0.9492 C   0  0  0  0  0  0  0  0  0  0  0  0
    0.6111    1.3672    0.0829 C   0  0  0  0  0  0  0  0  0  0  0  0
    0.6845    2.7687    0.1577 C   0  0  0  0  0  0  0  0  0  0  0  0
    0.4914    3.5553   -0.9815 C   0  0  0  0  0  0  0  0  0  0  0  0
    0.2294    2.9554   -2.2121 C   0  0  0  0  0  0  0  0  0  0  0  0
    0.1692    1.5675   -2.3057 C   0  0  0  0  0  0  0  0  0  0  0  0
    0.3628    0.7884   -1.1681 C   0  0  0  0  0  0  0  0  0  0  0  0
    0.3231   -0.5453   -1.2990 F   0  0  0  0  0  0  0  0  0  0  0  0
   -2.9959    0.1606    0.1108 C   0  0  0  0  0  0  0  0  0  0  0  0
   -3.2918    0.8871   -1.0563 C   0  0  0  0  0  0  0  0  0  0  0  0
   -3.7559    0.2444   -2.2052 C   0  0  0  0  0  0  0  0  0  0  0  0
   -3.9381   -1.1349   -2.2046 C   0  0  0  0  0  0  0  0  0  0  0  0
   -3.6594   -1.8687   -1.0547 C   0  0  0  0  0  0  0  0  0  0  0  0
   -3.1958   -1.2265    0.0964 C   0  0  0  0  0  0  0  0  0  0  0  0
   -4.7901   -0.5848    4.2346 H   0  0  0  0  0  0  0  0  0  0  0  0
   -3.3063    2.1936    2.9074 H   0  0  0  0  0  0  0  0  0  0  0  0
   -4.2968    2.1495    1.4691 H   0  0  0  0  0  0  0  0  0  0  0  0
   -1.9318    1.7707    0.9647 H   0  0  0  0  0  0  0  0  0  0  0  0
   -1.2419    0.7689    3.1121 H   0  0  0  0  0  0  0  0  0  0  0  0
   -2.0461   -0.7325    2.7028 H   0  0  0  0  0  0  0  0  0  0  0  0
    0.9985    1.1693    2.2023 H   0  0  0  0  0  0  0  0  0  0  0  0
    1.6337   -3.5601    1.7220 H   0  0  0  0  0  0  0  0  0  0  0  0
    5.9694   -0.0369    1.2701 H   0  0  0  0  0  0  0  0  0  0  0  0
    7.6248   -1.2568   -0.1087 H   0  0  0  0  0  0  0  0  0  0  0  0
    6.8696   -2.6415   -2.0253 H   0  0  0  0  0  0  0  0  0  0  0  0
    4.4544   -2.7952   -2.5711 H   0  0  0  0  0  0  0  0  0  0  0  0
    2.7934   -1.5829   -1.2195 H   0  0  0  0  0  0  0  0  0  0  0  0
    0.9037    3.2594    1.1045 H   0  0  0  0  0  0  0  0  0  0  0  0
    0.5544    4.6389   -0.9089 H   0  0  0  0  0  0  0  0  0  0  0  0
    0.0823    3.5680   -3.0979 H   0  0  0  0  0  0  0  0  0  0  0  0
   -0.0276    1.0829   -3.2569 H   0  0  0  0  0  0  0  0  0  0  0  0
   -3.1544    1.9662   -1.0811 H   0  0  0  0  0  0  0  0  0  0  0  0
   -3.9761    0.8214   -3.0991 H   0  0  0  0  0  0  0  0  0  0  0  0
   -4.3002   -1.6385   -3.0964 H   0  0  0  0  0  0  0  0  0  0  0  0
   -3.8040   -2.9460   -1.0489 H   0  0  0  0  0  0  0  0  0  0  0  0
   -2.9950   -1.8370    0.9733 H   0  0  0  0  0  0  0  0  0  0  0  0
  1  2  1  0
  2  3  2  0
  2  4  1  0
  4  5  1  0
  5  6  1  0
  6  7  1  0
  7  8  1  0
  8  9  1  0
  9 10  2  0
 10 11  1  0
 10 12  1  0
 12 13  2  0
  9 14  1  0
 14 15  2  0
 14 16  1  0
 16 17  2  0
 17 18  1  0
 18 19  2  0
 19 20  1  0
 20 21  2  0
  8 22  1  0
 22 23  2  0
 23 24  1  0
 24 25  2  0
 25 26  1  0
 26 27  2  0
 27 28  1  0
  5 29  1  0
 29 30  2  0
 30 31  1  0
 31 32  2  0
 32 33  1  0
 33 34  2  0
 12  7  1  0
 21 16  1  0
 27 22  1  0
 34 29  1  0
  1 35  1  0
  4 36  1  0
  4 37  1  0
  5 38  1  0
  6 39  1  0
  6 40  1  0
  8 41  1  0
 11 42  1  0
 17 43  1  0
 18 44  1  0
 19 45  1  0
 20 46  1  0
 21 47  1  0
 23 48  1  0
 24 49  1  0
 25 50  1  0
 26 51  1  0
 30 52  1  0
 31 53  1  0
 32 54  1  0
 33 55  1  0
 34 56  1  0
M  END
>  <Unnamed: 0>  (154) 
970

>  <ID>  (154) 
TRAIN_0970

>  <Canonical_Smiles>  (154) 
OC(=O)CC(CN1C(C(=C(O)C1=O)C(=O)c2ccccc2)c3ccccc3F)c4ccccc4

>  <Inhibition>  (154) 
6.28

>  <TDC_conf_true_inhibitor>  (154) 
0

>  <TDC_conf_non_inhibitor>  (154) 
1

>  <split>  (154) 
1

$$$$
154
     RDKit          3D

 55 59  0  0  0  0  0  0  0  0999 V2000
    1.2301   -0.4595    4.6708 C   0  0  0  0  0  0  0  0  0  0  0  0
    1.8670    0.5339    3.7137 C   0  0  0  0  0  0  0  0  0  0  0  0
    0.6783    1.7463    3.1269 S   0  0  0  0  0  0  0  0  0  0  0  0
    0.6033    1.0013    1.4505 C   0  0  0  0  0  0  0  0  0  0  0  0
    1.8281    0.2264    1.2829 N   0  0  0  0  0  0  0  0  0  0  0  0
    2.4378   -0.1622    2.4886 C   0  0  0  0  0  0  0  0  0  0  0  0
    3.3474   -0.9807    2.6105 O   0  0  0  0  0  0  0  0  0  0  0  0
    2.2964   -0.2536    0.0099 C   0  0  0  0  0  0  0  0  0  0  0  0
    1.4616   -0.3773   -1.1084 C   0  0  0  0  0  0  0  0  0  0  0  0
    1.9453   -0.8307   -2.3416 C   0  0  0  0  0  0  0  0  0  0  0  0
    3.2854   -1.1672   -2.4896 C   0  0  0  0  0  0  0  0  0  0  0  0
    4.1562   -1.0447   -1.4047 C   0  0  0  0  0  0  0  0  0  0  0  0
    3.6492   -0.5939   -0.1698 C   0  0  0  0  0  0  0  0  0  0  0  0
    5.6127   -1.4151   -1.5399 C   0  0  0  0  0  0  0  0  0  0  0  0
    6.0808   -1.2709   -2.8127 F   0  0  0  0  0  0  0  0  0  0  0  0
    5.8564   -2.7098   -1.1995 F   0  0  0  0  0  0  0  0  0  0  0  0
    6.4334   -0.6569   -0.7605 F   0  0  0  0  0  0  0  0  0  0  0  0
   -0.7129    0.1469    1.4003 C   0  0  0  0  0  0  0  0  0  0  0  0
   -0.9288   -0.9058    1.9865 O   0  0  0  0  0  0  0  0  0  0  0  0
   -1.6016    0.8222    0.5529 N   0  0  0  0  0  0  0  0  0  0  0  0
   -2.9558    0.3935    0.3065 C   0  0  0  0  0  0  0  0  0  0  0  0
   -3.0450   -0.2401   -1.0163 N   0  0  0  0  0  0  0  0  0  0  0  0
   -4.4610   -0.3108   -1.4577 C   0  0  0  0  0  0  0  0  0  0  0  0
   -5.1112   -1.7056   -1.3836 C   0  0  0  0  0  0  0  0  0  0  0  0
   -4.7179   -2.3776   -0.1885 O   0  0  0  0  0  0  0  0  0  0  0  0
   -3.3032   -2.6251   -0.1668 C   0  0  0  0  0  0  0  0  0  0  0  0
   -2.4856   -1.6094   -0.9946 C   0  0  0  0  0  0  0  0  0  0  0  0
   -0.9996    1.9553   -0.0196 C   0  0  0  0  0  0  0  0  0  0  0  0
   -1.5312    2.8394   -0.9408 C   0  0  0  0  0  0  0  0  0  0  0  0
   -0.7195    3.8837   -1.3925 C   0  0  0  0  0  0  0  0  0  0  0  0
    0.5973    4.0267   -0.9243 C   0  0  0  0  0  0  0  0  0  0  0  0
    1.1249    3.1282    0.0047 C   0  0  0  0  0  0  0  0  0  0  0  0
    0.3134    2.0928    0.4495 C   0  0  0  0  0  0  0  0  0  0  0  0
    0.8059    0.0443    5.5463 H   0  0  0  0  0  0  0  0  0  0  0  0
    0.4420   -1.0506    4.1943 H   0  0  0  0  0  0  0  0  0  0  0  0
    1.9798   -1.1722    5.0337 H   0  0  0  0  0  0  0  0  0  0  0  0
    2.6828    1.0681    4.2113 H   0  0  0  0  0  0  0  0  0  0  0  0
    0.4014   -0.1629   -1.0699 H   0  0  0  0  0  0  0  0  0  0  0  0
    1.2649   -0.9257   -3.1856 H   0  0  0  0  0  0  0  0  0  0  0  0
    3.6479   -1.5230   -3.4526 H   0  0  0  0  0  0  0  0  0  0  0  0
    4.3616   -0.4866    0.6471 H   0  0  0  0  0  0  0  0  0  0  0  0
   -3.5784    1.2957    0.3577 H   0  0  0  0  0  0  0  0  0  0  0  0
   -3.2938   -0.2640    1.1156 H   0  0  0  0  0  0  0  0  0  0  0  0
   -4.5102    0.0328   -2.4982 H   0  0  0  0  0  0  0  0  0  0  0  0
   -5.0835    0.3938   -0.8918 H   0  0  0  0  0  0  0  0  0  0  0  0
   -4.8419   -2.3202   -2.2510 H   0  0  0  0  0  0  0  0  0  0  0  0
   -6.2013   -1.6088   -1.3768 H   0  0  0  0  0  0  0  0  0  0  0  0
   -2.9922   -2.6089    0.8824 H   0  0  0  0  0  0  0  0  0  0  0  0
   -3.1301   -3.6389   -0.5450 H   0  0  0  0  0  0  0  0  0  0  0  0
   -1.4407   -1.6237   -0.6703 H   0  0  0  0  0  0  0  0  0  0  0  0
   -2.4502   -1.9607   -2.0354 H   0  0  0  0  0  0  0  0  0  0  0  0
   -2.5396    2.7292   -1.3240 H   0  0  0  0  0  0  0  0  0  0  0  0
   -1.1094    4.5930   -2.1196 H   0  0  0  0  0  0  0  0  0  0  0  0
    1.2109    4.8473   -1.2905 H   0  0  0  0  0  0  0  0  0  0  0  0
    2.1423    3.2422    0.3673 H   0  0  0  0  0  0  0  0  0  0  0  0
  1  2  1  0
  2  3  1  0
  3  4  1  0
  4  5  1  0
  5  6  1  0
  6  7  2  0
  5  8  1  0
  8  9  2  0
  9 10  1  0
 10 11  2  0
 11 12  1  0
 12 13  2  0
 12 14  1  0
 14 15  1  0
 14 16  1  0
 14 17  1  0
  4 18  1  0
 18 19  2  0
 18 20  1  0
 20 21  1  0
 21 22  1  0
 22 23  1  0
 23 24  1  0
 24 25  1  0
 25 26  1  0
 26 27  1  0
 20 28  1  0
 28 29  2  0
 29 30  1  0
 30 31  2  0
 31 32  1  0
 32 33  2  0
  6  2  1  0
 33  4  1  0
 13  8  1  0
 27 22  1  0
 33 28  1  0
  1 34  1  0
  1 35  1  0
  1 36  1  0
  2 37  1  0
  9 38  1  0
 10 39  1  0
 11 40  1  0
 13 41  1  0
 21 42  1  0
 21 43  1  0
 23 44  1  0
 23 45  1  0
 24 46  1  0
 24 47  1  0
 26 48  1  0
 26 49  1  0
 27 50  1  0
 27 51  1  0
 29 52  1  0
 30 53  1  0
 31 54  1  0
 32 55  1  0
M  END
>  <Unnamed: 0>  (155) 
976

>  <ID>  (155) 
TRAIN_0976

>  <Canonical_Smiles>  (155) 
CC1SC2(N(C1=O)c3cccc(c3)C(F)(F)F)C(=O)N(CN4CCOCC4)c5ccccc25

>  <Inhibition>  (155) 
37.2

>  <TDC_conf_true_inhibitor>  (155) 
1

>  <TDC_conf_non_inhibitor>  (155) 
0

>  <split>  (155) 
1

$$$$
155
     RDKit          3D

 38 41  0  0  0  0  0  0  0  0999 V2000
    3.3296   -3.0764    0.8551 C   0  0  0  0  0  0  0  0  0  0  0  0
    2.1287   -2.2356    0.6341 C   0  0  0  0  0  0  0  0  0  0  0  0
    0.8180   -2.6526    0.7253 C   0  0  0  0  0  0  0  0  0  0  0  0
   -0.0339   -1.6371    0.4642 O   0  0  0  0  0  0  0  0  0  0  0  0
    0.7120   -0.5279    0.1952 C   0  0  0  0  0  0  0  0  0  0  0  0
    0.2199    0.7415   -0.1256 C   0  0  0  0  0  0  0  0  0  0  0  0
   -1.2041    1.0638   -0.2196 C   0  0  0  0  0  0  0  0  0  0  0  0
   -1.5262    2.3300   -0.5382 C   0  0  0  0  0  0  0  0  0  0  0  0
   -0.5300    3.3955   -0.7941 C   0  0  0  0  0  0  0  0  0  0  0  0
   -0.7674    4.6316   -1.1044 N   0  0  0  0  0  0  0  0  0  0  0  0
   -2.1389    4.9073   -1.1865 O   0  0  0  0  0  0  0  0  0  0  0  0
    0.8038    3.0296   -0.6900 O   0  0  0  0  0  0  0  0  0  0  0  0
    1.1850    1.7145   -0.3587 C   0  0  0  0  0  0  0  0  0  0  0  0
    2.5527    1.4585   -0.2818 C   0  0  0  0  0  0  0  0  0  0  0  0
    3.0328    0.1742    0.0427 C   0  0  0  0  0  0  0  0  0  0  0  0
    4.5169   -0.0547    0.1140 C   0  0  0  0  0  0  0  0  0  0  0  0
    2.0719   -0.8428    0.2867 C   0  0  0  0  0  0  0  0  0  0  0  0
   -2.3398    0.1485   -0.0022 C   0  0  0  0  0  0  0  0  0  0  0  0
   -2.8800   -0.5740   -1.0739 C   0  0  0  0  0  0  0  0  0  0  0  0
   -3.9660   -1.4271   -0.8699 C   0  0  0  0  0  0  0  0  0  0  0  0
   -4.5187   -1.5614    0.4034 C   0  0  0  0  0  0  0  0  0  0  0  0
   -3.9863   -0.8451    1.4748 C   0  0  0  0  0  0  0  0  0  0  0  0
   -2.9002    0.0088    1.2739 C   0  0  0  0  0  0  0  0  0  0  0  0
    3.9311   -2.6800    1.6788 H   0  0  0  0  0  0  0  0  0  0  0  0
    3.0530   -4.1052    1.1086 H   0  0  0  0  0  0  0  0  0  0  0  0
    3.9478   -3.1098   -0.0473 H   0  0  0  0  0  0  0  0  0  0  0  0
    0.3506   -3.5999    0.9567 H   0  0  0  0  0  0  0  0  0  0  0  0
   -2.5641    2.6343   -0.6239 H   0  0  0  0  0  0  0  0  0  0  0  0
   -2.1449    5.8541   -1.4224 H   0  0  0  0  0  0  0  0  0  0  0  0
    3.2499    2.2711   -0.4775 H   0  0  0  0  0  0  0  0  0  0  0  0
    4.8152   -0.8152   -0.6140 H   0  0  0  0  0  0  0  0  0  0  0  0
    4.7985   -0.3838    1.1188 H   0  0  0  0  0  0  0  0  0  0  0  0
    5.0795    0.8581   -0.1078 H   0  0  0  0  0  0  0  0  0  0  0  0
   -2.4528   -0.4809   -2.0694 H   0  0  0  0  0  0  0  0  0  0  0  0
   -4.3781   -1.9888   -1.7039 H   0  0  0  0  0  0  0  0  0  0  0  0
   -5.3626   -2.2278    0.5615 H   0  0  0  0  0  0  0  0  0  0  0  0
   -4.4141   -0.9533    2.4679 H   0  0  0  0  0  0  0  0  0  0  0  0
   -2.4889    0.5583    2.1171 H   0  0  0  0  0  0  0  0  0  0  0  0
  1  2  1  0
  2  3  2  0
  3  4  1  0
  4  5  1  0
  5  6  2  0
  6  7  1  0
  7  8  2  0
  8  9  1  0
  9 10  2  0
 10 11  1  0
  9 12  1  0
 12 13  1  0
 13 14  2  0
 14 15  1  0
 15 16  1  0
 15 17  2  0
  7 18  1  0
 18 19  2  0
 19 20  1  0
 20 21  2  0
 21 22  1  0
 22 23  2  0
 17  2  1  0
 17  5  1  0
 13  6  1  0
 23 18  1  0
  1 24  1  0
  1 25  1  0
  1 26  1  0
  3 27  1  0
  8 28  1  0
 11 29  1  0
 14 30  1  0
 16 31  1  0
 16 32  1  0
 16 33  1  0
 19 34  1  0
 20 35  1  0
 21 36  1  0
 22 37  1  0
 23 38  1  0
M  END
>  <Unnamed: 0>  (156) 
978

>  <ID>  (156) 
TRAIN_0978

>  <Canonical_Smiles>  (156) 
Cc1coc2c3C(=C\C(=N/O)\Oc3cc(C)c12)c4ccccc4

>  <Inhibition>  (156) 
21.2

>  <TDC_conf_true_inhibitor>  (156) 
0

>  <TDC_conf_non_inhibitor>  (156) 
1

>  <split>  (156) 
1

$$$$
156
     RDKit          3D

 39 40  0  0  0  0  0  0  0  0999 V2000
   -5.0054   -1.8413    1.2746 C   0  0  0  0  0  0  0  0  0  0  0  0
   -4.1422   -1.0582    0.3332 C   0  0  0  0  0  0  0  0  0  0  0  0
   -3.0884   -0.3330    0.7386 C   0  0  0  0  0  0  0  0  0  0  0  0
   -2.2685    0.4252   -0.2485 C   0  0  0  0  0  0  0  0  0  0  0  0
   -1.2503    1.1094    0.1831 N   0  0  0  0  0  0  0  0  0  0  0  0
   -0.5041    1.7974   -0.7403 C   0  0  0  0  0  0  0  0  0  0  0  0
   -0.7908    1.8152   -2.0479 C   0  0  0  0  0  0  0  0  0  0  0  0
   -1.9384    1.0367   -2.5452 C   0  0  0  0  0  0  0  0  0  0  0  0
   -2.1884    1.0560   -3.7489 O   0  0  0  0  0  0  0  0  0  0  0  0
   -2.6525    0.3449   -1.5800 N   0  0  0  0  0  0  0  0  0  0  0  0
   -3.7500   -0.4160   -1.9618 C   0  0  0  0  0  0  0  0  0  0  0  0
   -4.4805   -1.0987   -1.0718 C   0  0  0  0  0  0  0  0  0  0  0  0
    0.6295    2.6160   -0.1842 C   0  0  0  0  0  0  0  0  0  0  0  0
    2.0971    1.6086   -0.0236 S   0  0  0  0  0  6  0  0  0  0  0  0
    2.3962    1.0124   -1.3144 O   0  0  0  0  0  0  0  0  0  0  0  0
    3.1024    2.4251    0.6346 O   0  0  0  0  0  0  0  0  0  0  0  0
    1.6561    0.2956    1.1058 C   0  0  0  0  0  0  0  0  0  0  0  0
    2.8620   -0.4854    1.6314 C   0  0  0  0  0  0  0  0  0  0  0  0
    3.5783   -1.3345    0.5683 C   0  0  0  0  0  0  0  0  0  0  0  0
    4.9081   -0.7430    0.0860 C   0  0  0  0  0  0  0  0  0  0  0  0
    5.9516   -0.8409    1.1177 C   0  0  0  0  0  0  0  0  0  0  0  0
    6.7667   -0.9351    1.9385 N   0  0  0  0  0  0  0  0  0  0  0  0
   -4.6677   -1.7446    2.3122 H   0  0  0  0  0  0  0  0  0  0  0  0
   -6.0419   -1.4902    1.2293 H   0  0  0  0  0  0  0  0  0  0  0  0
   -4.9876   -2.9060    1.0181 H   0  0  0  0  0  0  0  0  0  0  0  0
   -2.7886   -0.2627    1.7772 H   0  0  0  0  0  0  0  0  0  0  0  0
   -0.2198    2.3677   -2.7834 H   0  0  0  0  0  0  0  0  0  0  0  0
   -3.9929   -0.4343   -3.0217 H   0  0  0  0  0  0  0  0  0  0  0  0
   -5.3344   -1.6866   -1.3958 H   0  0  0  0  0  0  0  0  0  0  0  0
    0.8911    3.4512   -0.8428 H   0  0  0  0  0  0  0  0  0  0  0  0
    0.3886    3.0268    0.8014 H   0  0  0  0  0  0  0  0  0  0  0  0
    1.1411    0.7679    1.9489 H   0  0  0  0  0  0  0  0  0  0  0  0
    0.9610   -0.3759    0.5944 H   0  0  0  0  0  0  0  0  0  0  0  0
    3.5603    0.1907    2.1368 H   0  0  0  0  0  0  0  0  0  0  0  0
    2.4853   -1.1691    2.4032 H   0  0  0  0  0  0  0  0  0  0  0  0
    2.9198   -1.4962   -0.2931 H   0  0  0  0  0  0  0  0  0  0  0  0
    3.7711   -2.3292    0.9923 H   0  0  0  0  0  0  0  0  0  0  0  0
    4.7882    0.2986   -0.2233 H   0  0  0  0  0  0  0  0  0  0  0  0
    5.2378   -1.3002   -0.7989 H   0  0  0  0  0  0  0  0  0  0  0  0
  1  2  1  0
  2  3  2  0
  3  4  1  0
  4  5  2  0
  5  6  1  0
  6  7  2  0
  7  8  1  0
  8  9  2  0
  8 10  1  0
 10 11  1  0
 11 12  2  0
  6 13  1  0
 13 14  1  0
 14 15  2  0
 14 16  2  0
 14 17  1  0
 17 18  1  0
 18 19  1  0
 19 20  1  0
 20 21  1  0
 21 22  3  0
 12  2  1  0
 10  4  1  0
  1 23  1  0
  1 24  1  0
  1 25  1  0
  3 26  1  0
  7 27  1  0
 11 28  1  0
 12 29  1  0
 13 30  1  0
 13 31  1  0
 17 32  1  0
 17 33  1  0
 18 34  1  0
 18 35  1  0
 19 36  1  0
 19 37  1  0
 20 38  1  0
 20 39  1  0
M  END
>  <Unnamed: 0>  (157) 
987

>  <ID>  (157) 
TRAIN_0987

>  <Canonical_Smiles>  (157) 
CC1=CC2=NC(=CC(=O)N2C=C1)CS(=O)(=O)CCCCC#N

>  <Inhibition>  (157) 
33.4

>  <TDC_conf_true_inhibitor>  (157) 
1

>  <TDC_conf_non_inhibitor>  (157) 
0

>  <split>  (157) 
1

$$$$
157
     RDKit          3D

 57 60  0  0  0  0  0  0  0  0999 V2000
   -5.9920    1.4169    1.7410 C   0  0  0  0  0  0  0  0  0  0  0  0
   -6.3611    0.0912    1.0937 C   0  0  0  0  0  0  0  0  0  0  0  0
   -6.1136    0.0892   -0.3417 N   0  0  0  0  0  0  0  0  0  0  0  0
   -6.9901    0.5985   -1.2712 C   0  0  0  0  0  0  0  0  0  0  0  0
   -6.4449    0.4101   -2.5213 C   0  0  0  0  0  0  0  0  0  0  0  0
   -5.1976   -0.2345   -2.3428 C   0  0  0  0  0  0  0  0  0  0  0  0
   -5.0042   -0.4137   -0.9854 C   0  0  0  0  0  0  0  0  0  0  0  0
   -3.8917   -1.0185   -0.3247 C   0  0  0  0  0  0  0  0  0  0  0  0
   -3.8361   -2.3081   -0.0877 N   0  0  0  0  0  0  0  0  0  0  0  0
   -2.6551   -2.6175    0.5738 C   0  0  0  0  0  0  0  0  0  0  0  0
   -2.4123   -4.0365    0.9513 C   0  0  0  0  0  0  0  0  0  0  0  0
   -1.8094   -1.5373    0.7862 C   0  0  0  0  0  0  0  0  0  0  0  0
   -2.5565   -0.0978    0.2184 S   0  0  0  0  0  0  0  0  0  0  0  0
   -0.5368   -1.5130    1.4798 C   0  0  0  0  0  0  0  0  0  0  0  0
   -0.3998   -2.0687    2.5694 O   0  0  0  0  0  0  0  0  0  0  0  0
    0.5430   -0.8553    0.8862 N   0  0  0  0  0  0  0  0  0  0  0  0
    0.6375   -0.5314   -0.5437 C   0  0  0  0  0  0  0  0  0  0  0  0
    2.0831   -0.5476   -1.0740 C   0  0  0  0  0  0  0  0  0  0  0  0
    2.9819    0.3246   -0.2893 N   0  0  0  0  0  0  0  0  0  0  0  0
    2.6841    0.4484    1.1644 C   0  0  0  0  0  0  0  0  0  0  0  0
    2.0262    1.8042    1.4491 C   0  0  0  0  0  0  0  0  0  0  0  0
    1.7798   -0.7095    1.6578 C   0  0  0  0  0  0  0  0  0  0  0  0
    4.2823    0.5617   -0.7516 C   0  0  0  0  0  0  0  0  0  0  0  0
    4.7913   -0.0410   -1.9150 C   0  0  0  0  0  0  0  0  0  0  0  0
    6.0855    0.2166   -2.3855 C   0  0  0  0  0  0  0  0  0  0  0  0
    6.9164    1.0981   -1.7057 C   0  0  0  0  0  0  0  0  0  0  0  0
    6.4570    1.7223   -0.5477 C   0  0  0  0  0  0  0  0  0  0  0  0
    7.3168    2.7044    0.1924 C   0  0  0  0  0  0  0  0  0  0  0  0
    5.1510    1.4554   -0.0965 C   0  0  0  0  0  0  0  0  0  0  0  0
   -6.6226    2.2302    1.3611 H   0  0  0  0  0  0  0  0  0  0  0  0
   -6.1274    1.3601    2.8259 H   0  0  0  0  0  0  0  0  0  0  0  0
   -4.9490    1.6872    1.5371 H   0  0  0  0  0  0  0  0  0  0  0  0
   -7.4263   -0.1206    1.2414 H   0  0  0  0  0  0  0  0  0  0  0  0
   -5.8024   -0.7340    1.5481 H   0  0  0  0  0  0  0  0  0  0  0  0
   -7.9276    1.0470   -0.9678 H   0  0  0  0  0  0  0  0  0  0  0  0
   -6.8956    0.7010   -3.4593 H   0  0  0  0  0  0  0  0  0  0  0  0
   -4.5098   -0.5383   -3.1208 H   0  0  0  0  0  0  0  0  0  0  0  0
   -1.9833   -4.1147    1.9570 H   0  0  0  0  0  0  0  0  0  0  0  0
   -3.3495   -4.6024    0.9482 H   0  0  0  0  0  0  0  0  0  0  0  0
   -1.7240   -4.5043    0.2398 H   0  0  0  0  0  0  0  0  0  0  0  0
    0.0338   -1.2382   -1.1237 H   0  0  0  0  0  0  0  0  0  0  0  0
    0.2172    0.4722   -0.6805 H   0  0  0  0  0  0  0  0  0  0  0  0
    2.0468   -0.2188   -2.1198 H   0  0  0  0  0  0  0  0  0  0  0  0
    2.4602   -1.5778   -1.0455 H   0  0  0  0  0  0  0  0  0  0  0  0
    3.6056    0.3744    1.7565 H   0  0  0  0  0  0  0  0  0  0  0  0
    1.8340    1.9190    2.5220 H   0  0  0  0  0  0  0  0  0  0  0  0
    1.0736    1.9203    0.9233 H   0  0  0  0  0  0  0  0  0  0  0  0
    2.6652    2.6355    1.1360 H   0  0  0  0  0  0  0  0  0  0  0  0
    1.5394   -0.5742    2.7193 H   0  0  0  0  0  0  0  0  0  0  0  0
    2.3189   -1.6624    1.5686 H   0  0  0  0  0  0  0  0  0  0  0  0
    4.1973   -0.7448   -2.4892 H   0  0  0  0  0  0  0  0  0  0  0  0
    6.4381   -0.2751   -3.2881 H   0  0  0  0  0  0  0  0  0  0  0  0
    7.9155    1.2959   -2.0856 H   0  0  0  0  0  0  0  0  0  0  0  0
    7.3147    2.4781    1.2638 H   0  0  0  0  0  0  0  0  0  0  0  0
    6.9465    3.7228    0.0320 H   0  0  0  0  0  0  0  0  0  0  0  0
    8.3582    2.6607   -0.1471 H   0  0  0  0  0  0  0  0  0  0  0  0
    4.8178    1.9896    0.7886 H   0  0  0  0  0  0  0  0  0  0  0  0
  1  2  1  0
  2  3  1  0
  3  4  1  0
  4  5  2  0
  5  6  1  0
  6  7  2  0
  7  8  1  0
  8  9  2  0
  9 10  1  0
 10 11  1  0
 10 12  2  0
 12 13  1  0
 12 14  1  0
 14 15  2  0
 14 16  1  0
 16 17  1  0
 17 18  1  0
 18 19  1  0
 19 20  1  0
 20 21  1  0
 20 22  1  0
 19 23  1  0
 23 24  2  0
 24 25  1  0
 25 26  2  0
 26 27  1  0
 27 28  1  0
 27 29  2  0
  7  3  1  0
 13  8  1  0
 22 16  1  0
 29 23  1  0
  1 30  1  0
  1 31  1  0
  1 32  1  0
  2 33  1  0
  2 34  1  0
  4 35  1  0
  5 36  1  0
  6 37  1  0
 11 38  1  0
 11 39  1  0
 11 40  1  0
 17 41  1  0
 17 42  1  0
 18 43  1  0
 18 44  1  0
 20 45  1  0
 21 46  1  0
 21 47  1  0
 21 48  1  0
 22 49  1  0
 22 50  1  0
 24 51  1  0
 25 52  1  0
 26 53  1  0
 28 54  1  0
 28 55  1  0
 28 56  1  0
 29 57  1  0
M  END
>  <Unnamed: 0>  (158) 
993

>  <ID>  (158) 
TRAIN_0993

>  <Canonical_Smiles>  (158) 
CCn1cccc1c2nc(C)c(s2)C(=O)N3CCN(C(C)C3)c4cccc(C)c4

>  <Inhibition>  (158) 
34.0

>  <TDC_conf_true_inhibitor>  (158) 
1

>  <TDC_conf_non_inhibitor>  (158) 
0

>  <split>  (158) 
1

$$$$
158
     RDKit          3D

 36 39  0  0  0  0  0  0  0  0999 V2000
    3.8139   -0.5507   -2.3571 C   0  0  0  0  0  0  0  0  0  0  0  0
    4.6553    0.3893   -1.7021 O   0  0  0  0  0  0  0  0  0  0  0  0
    3.9227    1.4944   -1.1462 C   0  0  0  0  0  0  0  0  0  0  0  0
    3.1315    1.1615    0.0799 C   0  0  0  0  0  0  0  0  0  0  0  0
    3.6350    1.3263    1.3407 N   0  0  0  0  0  0  0  0  0  0  0  0
    2.6606    0.9242    2.1251 C   0  0  0  0  0  0  0  0  0  0  0  0
    2.6254    0.8678    3.4893 N   0  0  0  0  0  0  0  0  0  0  0  0
    1.5267    0.4177    4.0079 C   0  0  0  0  0  0  0  0  0  0  0  0
    0.3192   -0.0339    3.2678 C   0  0  0  0  0  0  0  0  0  0  0  0
    0.3900    0.0376    1.9251 C   0  0  0  0  0  0  0  0  0  0  0  0
   -0.7737   -0.3781    1.1195 C   0  0  0  0  0  0  0  0  0  0  0  0
   -1.2824   -1.6790    1.2171 C   0  0  0  0  0  0  0  0  0  0  0  0
   -2.3926   -2.0657    0.4613 C   0  0  0  0  0  0  0  0  0  0  0  0
   -3.0175   -1.1613   -0.4098 C   0  0  0  0  0  0  0  0  0  0  0  0
   -4.1337   -1.5348   -1.1756 C   0  0  0  0  0  0  0  0  0  0  0  0
   -4.7420   -0.6239   -2.0406 C   0  0  0  0  0  0  0  0  0  0  0  0
   -4.2419    0.6699   -2.1517 C   0  0  0  0  0  0  0  0  0  0  0  0
   -3.1328    1.0562   -1.3974 C   0  0  0  0  0  0  0  0  0  0  0  0
   -2.5100    0.1526   -0.5211 C   0  0  0  0  0  0  0  0  0  0  0  0
   -1.3929    0.5274    0.2457 C   0  0  0  0  0  0  0  0  0  0  0  0
    1.5685    0.5272    1.3370 N   0  0  0  0  0  0  0  0  0  0  0  0
    1.8731    0.7082    0.0250 N   0  0  0  0  0  0  0  0  0  0  0  0
    3.1914   -1.0869   -1.6359 H   0  0  0  0  0  0  0  0  0  0  0  0
    3.1900   -0.0597   -3.1101 H   0  0  0  0  0  0  0  0  0  0  0  0
    4.4515   -1.2822   -2.8616 H   0  0  0  0  0  0  0  0  0  0  0  0
    3.2806    1.9373   -1.9173 H   0  0  0  0  0  0  0  0  0  0  0  0
    4.6648    2.2566   -0.8830 H   0  0  0  0  0  0  0  0  0  0  0  0
    1.4490    0.3526    5.1064 H   0  0  0  0  0  0  0  0  0  0  0  0
   -0.5390   -0.3769    3.8300 H   0  0  0  0  0  0  0  0  0  0  0  0
   -0.8154   -2.4114    1.8721 H   0  0  0  0  0  0  0  0  0  0  0  0
   -2.7640   -3.0840    0.5542 H   0  0  0  0  0  0  0  0  0  0  0  0
   -4.5379   -2.5422   -1.1050 H   0  0  0  0  0  0  0  0  0  0  0  0
   -5.6047   -0.9262   -2.6287 H   0  0  0  0  0  0  0  0  0  0  0  0
   -4.7130    1.3797   -2.8268 H   0  0  0  0  0  0  0  0  0  0  0  0
   -2.7552    2.0712   -1.5008 H   0  0  0  0  0  0  0  0  0  0  0  0
   -1.0005    1.5392    0.1538 H   0  0  0  0  0  0  0  0  0  0  0  0
  1  2  1  0
  2  3  1  0
  3  4  1  0
  4  5  1  0
  5  6  2  0
  6  7  1  0
  7  8  2  0
  8  9  1  0
  9 10  2  0
 10 11  1  0
 11 12  2  0
 12 13  1  0
 13 14  2  0
 14 15  1  0
 15 16  2  0
 16 17  1  0
 17 18  2  0
 18 19  1  0
 19 20  2  0
 10 21  1  0
 21 22  1  0
 22  4  2  0
 21  6  1  0
 20 11  1  0
 19 14  1  0
  1 23  1  0
  1 24  1  0
  1 25  1  0
  3 26  1  0
  3 27  1  0
  8 28  1  0
  9 29  1  0
 12 30  1  0
 13 31  1  0
 15 32  1  0
 16 33  1  0
 17 34  1  0
 18 35  1  0
 20 36  1  0
M  END
>  <Unnamed: 0>  (159) 
994

>  <ID>  (159) 
TRAIN_0994

>  <Canonical_Smiles>  (159) 
COCc1nc2nccc(c3ccc4ccccc4c3)n2n1

>  <Inhibition>  (159) 
4.73

>  <TDC_conf_true_inhibitor>  (159) 
0

>  <TDC_conf_non_inhibitor>  (159) 
1

>  <split>  (159) 
1

$$$$
159
     RDKit          3D

 55 59  0  0  0  0  0  0  0  0999 V2000
   -1.4987    3.0151    4.4251 Cl  0  0  0  0  0  0  0  0  0  0  0  0
   -1.4543    3.2125    2.7063 C   0  0  0  0  0  0  0  0  0  0  0  0
   -1.0523    4.4601    2.2166 C   0  0  0  0  0  0  0  0  0  0  0  0
   -1.0012    4.6917    0.8442 C   0  0  0  0  0  0  0  0  0  0  0  0
   -1.3546    3.6774   -0.0387 C   0  0  0  0  0  0  0  0  0  0  0  0
   -1.7553    2.4301    0.4483 C   0  0  0  0  0  0  0  0  0  0  0  0
   -1.8059    2.1682    1.8302 C   0  0  0  0  0  0  0  0  0  0  0  0
   -2.2431    0.8211    2.3860 C   0  0  0  0  0  0  0  0  0  0  0  0
   -2.4265   -0.2630    1.4010 N   0  0  0  0  0  0  0  0  0  0  0  0
   -3.6943   -0.3201    0.7956 C   0  0  0  0  0  0  0  0  0  0  0  0
   -4.6278    0.4133    1.1305 O   0  0  0  0  0  0  0  0  0  0  0  0
   -3.9357   -1.1478   -0.4059 C   0  0  0  0  0  0  0  0  0  0  0  0
   -4.4631   -0.5022   -1.5358 C   0  0  0  0  0  0  0  0  0  0  0  0
   -4.7751   -1.2313   -2.6827 C   0  0  0  0  0  0  0  0  0  0  0  0
   -4.5793   -2.6096   -2.6995 C   0  0  0  0  0  0  0  0  0  0  0  0
   -4.0750   -3.2570   -1.5695 C   0  0  0  0  0  0  0  0  0  0  0  0
   -3.7528   -2.5289   -0.4165 C   0  0  0  0  0  0  0  0  0  0  0  0
   -3.0967   -3.3804    0.9908 S   0  0  0  0  0  0  0  0  0  0  0  0
   -1.5065   -2.5669    1.0048 C   0  0  0  0  0  0  0  0  0  0  0  0
   -0.3896   -3.4128    0.8686 C   0  0  0  0  0  0  0  0  0  0  0  0
    0.9069   -2.9057    0.9209 C   0  0  0  0  0  0  0  0  0  0  0  0
    1.0975   -1.5409    1.1194 C   0  0  0  0  0  0  0  0  0  0  0  0
   -0.0124   -0.6976    1.2809 C   0  0  0  0  0  0  0  0  0  0  0  0
   -1.3337   -1.1814    1.2063 C   0  0  0  0  0  0  0  0  0  0  0  0
    2.4566   -0.9402    1.1889 C   0  0  0  0  0  0  0  0  0  0  0  0
    2.6477    0.0568    1.8743 O   0  0  0  0  0  0  0  0  0  0  0  0
    3.4257   -1.5450    0.4185 N   0  0  0  0  0  0  0  0  0  0  0  0
    4.7283   -0.9392    0.2463 C   0  0  0  0  0  0  0  0  0  0  0  0
    4.7789   -0.1472   -1.0354 C   0  0  0  0  0  0  0  0  0  0  0  0
    5.2929   -0.7128   -2.2101 C   0  0  0  0  0  0  0  0  0  0  0  0
    5.3081    0.0190   -3.3991 C   0  0  0  0  0  0  0  0  0  0  0  0
    4.8055    1.3187   -3.4269 C   0  0  0  0  0  0  0  0  0  0  0  0
    4.2865    1.8888   -2.2665 C   0  0  0  0  0  0  0  0  0  0  0  0
    4.2701    1.1592   -1.0774 C   0  0  0  0  0  0  0  0  0  0  0  0
   -0.7788    5.2570    2.9034 H   0  0  0  0  0  0  0  0  0  0  0  0
   -0.6902    5.6618    0.4662 H   0  0  0  0  0  0  0  0  0  0  0  0
   -1.3223    3.8549   -1.1112 H   0  0  0  0  0  0  0  0  0  0  0  0
   -2.0260    1.6663   -0.2755 H   0  0  0  0  0  0  0  0  0  0  0  0
   -3.1924    0.9704    2.9161 H   0  0  0  0  0  0  0  0  0  0  0  0
   -1.5260    0.4754    3.1409 H   0  0  0  0  0  0  0  0  0  0  0  0
   -4.6444    0.5707   -1.5142 H   0  0  0  0  0  0  0  0  0  0  0  0
   -5.1842   -0.7263   -3.5544 H   0  0  0  0  0  0  0  0  0  0  0  0
   -4.8281   -3.1836   -3.5887 H   0  0  0  0  0  0  0  0  0  0  0  0
   -3.9366   -4.3356   -1.5964 H   0  0  0  0  0  0  0  0  0  0  0  0
   -0.5266   -4.4851    0.7359 H   0  0  0  0  0  0  0  0  0  0  0  0
    1.7480   -3.5885    0.8411 H   0  0  0  0  0  0  0  0  0  0  0  0
    0.1877    0.3606    1.4341 H   0  0  0  0  0  0  0  0  0  0  0  0
    3.1392   -2.1995   -0.2949 H   0  0  0  0  0  0  0  0  0  0  0  0
    4.9787   -0.3004    1.1009 H   0  0  0  0  0  0  0  0  0  0  0  0
    5.4627   -1.7517    0.2215 H   0  0  0  0  0  0  0  0  0  0  0  0
    5.6878   -1.7257   -2.2067 H   0  0  0  0  0  0  0  0  0  0  0  0
    5.7133   -0.4240   -4.3055 H   0  0  0  0  0  0  0  0  0  0  0  0
    4.8189    1.8880   -4.3526 H   0  0  0  0  0  0  0  0  0  0  0  0
    3.8947    2.9027   -2.2839 H   0  0  0  0  0  0  0  0  0  0  0  0
    3.8540    1.6108   -0.1775 H   0  0  0  0  0  0  0  0  0  0  0  0
  1  2  1  0
  2  3  2  0
  3  4  1  0
  4  5  2  0
  5  6  1  0
  6  7  2  0
  7  8  1  0
  8  9  1  0
  9 10  1  0
 10 11  2  0
 10 12  1  0
 12 13  2  0
 13 14  1  0
 14 15  2  0
 15 16  1  0
 16 17  2  0
 17 18  1  0
 18 19  1  0
 19 20  2  0
 20 21  1  0
 21 22  2  0
 22 23  1  0
 23 24  2  0
 22 25  1  0
 25 26  2  0
 25 27  1  0
 27 28  1  0
 28 29  1  0
 29 30  2  0
 30 31  1  0
 31 32  2  0
 32 33  1  0
 33 34  2  0
  7  2  1  0
 24  9  1  0
 17 12  1  0
 24 19  1  0
 34 29  1  0
  3 35  1  0
  4 36  1  0
  5 37  1  0
  6 38  1  0
  8 39  1  0
  8 40  1  0
 13 41  1  0
 14 42  1  0
 15 43  1  0
 16 44  1  0
 20 45  1  0
 21 46  1  0
 23 47  1  0
 27 48  1  0
 28 49  1  0
 28 50  1  0
 30 51  1  0
 31 52  1  0
 32 53  1  0
 33 54  1  0
 34 55  1  0
M  END
>  <Unnamed: 0>  (160) 
1004

>  <ID>  (160) 
TRAIN_1004

>  <Canonical_Smiles>  (160) 
Clc1ccccc1CN2C(=O)c3ccccc3Sc4ccc(cc24)C(=O)NCc5ccccc5

>  <Inhibition>  (160) 
85.8

>  <TDC_conf_true_inhibitor>  (160) 
1

>  <TDC_conf_non_inhibitor>  (160) 
0

>  <split>  (160) 
1

$$$$
160
     RDKit          3D

 38 39  0  0  0  0  0  0  0  0999 V2000
    2.8592    1.0573    2.3355 C   0  0  0  0  0  0  0  0  0  0  0  0
    3.5912    0.2508    1.2791 C   0  0  0  0  0  0  0  0  0  0  0  0
    2.7146   -0.0278    0.1757 O   0  0  0  0  0  0  0  0  0  0  0  0
    1.9388   -1.1406    0.3013 C   0  0  0  0  0  0  0  0  0  0  0  0
    1.9386   -1.8963    1.2609 O   0  0  0  0  0  0  0  0  0  0  0  0
    1.0538   -1.2911   -0.9200 C   0  0  0  0  0  0  0  0  0  0  0  0
    0.8634   -2.7644   -1.2309 C   0  0  0  0  0  0  0  0  0  0  0  0
   -0.4257   -3.0775   -0.5350 C   0  0  0  0  0  0  0  0  0  0  0  0
   -0.8687   -4.1982   -0.3473 O   0  0  0  0  0  0  0  0  0  0  0  0
   -1.0706   -1.9269   -0.1896 O   0  0  0  0  0  0  0  0  0  0  0  0
   -0.3713   -0.7800   -0.7086 C   0  0  0  0  0  0  0  0  0  0  0  0
   -1.0211   -0.3837   -2.0409 C   0  0  0  0  0  0  0  0  0  0  0  0
   -2.4780    0.0338   -1.8666 C   0  0  0  0  0  0  0  0  0  0  0  0
   -2.8155    0.4101   -0.5386 O   0  0  0  0  0  0  0  0  0  0  0  0
   -1.8363    1.1657    0.1726 C   0  0  0  0  0  0  0  0  0  0  0  0
   -1.6413    2.5412   -0.4868 C   0  0  0  0  0  0  0  0  0  0  0  0
   -2.4178    1.3922    1.5758 C   0  0  0  0  0  0  0  0  0  0  0  0
   -0.5004    0.3900    0.2823 C   0  0  0  0  0  0  0  0  0  0  0  0
    2.4438    1.9725    1.9010 H   0  0  0  0  0  0  0  0  0  0  0  0
    2.0182    0.4918    2.7490 H   0  0  0  0  0  0  0  0  0  0  0  0
    3.5333    1.3283    3.1528 H   0  0  0  0  0  0  0  0  0  0  0  0
    4.4274    0.8359    0.8827 H   0  0  0  0  0  0  0  0  0  0  0  0
    4.0119   -0.6712    1.6964 H   0  0  0  0  0  0  0  0  0  0  0  0
    1.5613   -0.7954   -1.7569 H   0  0  0  0  0  0  0  0  0  0  0  0
    0.7259   -2.9305   -2.3038 H   0  0  0  0  0  0  0  0  0  0  0  0
    1.6687   -3.4002   -0.8537 H   0  0  0  0  0  0  0  0  0  0  0  0
   -0.4594    0.4484   -2.4842 H   0  0  0  0  0  0  0  0  0  0  0  0
   -0.9835   -1.1969   -2.7758 H   0  0  0  0  0  0  0  0  0  0  0  0
   -3.1333   -0.8038   -2.1299 H   0  0  0  0  0  0  0  0  0  0  0  0
   -2.7303    0.8506   -2.5520 H   0  0  0  0  0  0  0  0  0  0  0  0
   -1.1855    2.4586   -1.4782 H   0  0  0  0  0  0  0  0  0  0  0  0
   -0.9995    3.1885    0.1207 H   0  0  0  0  0  0  0  0  0  0  0  0
   -2.6052    3.0432   -0.6288 H   0  0  0  0  0  0  0  0  0  0  0  0
   -1.7328    1.9632    2.2114 H   0  0  0  0  0  0  0  0  0  0  0  0
   -2.6330    0.4359    2.0668 H   0  0  0  0  0  0  0  0  0  0  0  0
   -3.3715    1.9303    1.5216 H   0  0  0  0  0  0  0  0  0  0  0  0
   -0.3919   -0.0052    1.3012 H   0  0  0  0  0  0  0  0  0  0  0  0
    0.3225    1.1015    0.1418 H   0  0  0  0  0  0  0  0  0  0  0  0
  1  2  1  0
  2  3  1  0
  3  4  1  0
  4  5  2  0
  4  6  1  0
  6  7  1  0
  7  8  1  0
  8  9  2  0
  8 10  1  0
 10 11  1  0
 11 12  1  0
 12 13  1  0
 13 14  1  0
 14 15  1  0
 15 16  1  0
 15 17  1  0
 15 18  1  0
 11  6  1  0
 18 11  1  0
  1 19  1  0
  1 20  1  0
  1 21  1  0
  2 22  1  0
  2 23  1  0
  6 24  1  0
  7 25  1  0
  7 26  1  0
 12 27  1  0
 12 28  1  0
 13 29  1  0
 13 30  1  0
 16 31  1  0
 16 32  1  0
 16 33  1  0
 17 34  1  0
 17 35  1  0
 17 36  1  0
 18 37  1  0
 18 38  1  0
M  END
>  <Unnamed: 0>  (161) 
1005

>  <ID>  (161) 
TRAIN_1005

>  <Canonical_Smiles>  (161) 
CCOC(=O)C1CC(=O)OC12CCOC(C)(C)C2

>  <Inhibition>  (161) 
7.22

>  <TDC_conf_true_inhibitor>  (161) 
0

>  <TDC_conf_non_inhibitor>  (161) 
1

>  <split>  (161) 
1

$$$$
161
     RDKit          3D

 54 57  0  0  0  0  0  0  0  0999 V2000
   -1.0304   -0.1634   -2.4743 O   0  0  0  0  0  0  0  0  0  0  0  0
   -0.5041    0.6869   -1.7596 C   0  0  0  0  0  0  0  0  0  0  0  0
   -0.6809    0.7344   -0.3860 N   0  0  0  0  0  0  0  0  0  0  0  0
   -1.2833   -0.3730    0.3258 C   0  0  0  0  0  0  0  0  0  0  0  0
   -2.8056   -0.3157    0.2759 C   0  0  0  0  0  0  0  0  0  0  0  0
   -3.4194   -1.5028    1.0105 C   0  0  0  0  0  0  0  0  0  0  0  0
   -4.8693   -1.4275    1.0255 N   0  0  0  0  0  0  0  0  0  0  0  0
   -5.6838   -1.9018   -0.0637 C   0  0  0  0  0  0  0  0  0  0  0  0
   -7.0297   -1.2546    0.2001 C   0  0  0  0  0  0  0  0  0  0  0  0
   -7.0757   -1.1011    1.7163 C   0  0  0  0  0  0  0  0  0  0  0  0
   -5.6211   -0.9457    2.0847 C   0  0  0  0  0  0  0  0  0  0  0  0
   -5.2010   -0.5097    3.1436 O   0  0  0  0  0  0  0  0  0  0  0  0
    0.2903    1.8751   -2.3203 C   0  0  0  0  0  0  0  0  0  0  0  0
    0.6009    1.7853   -3.8081 C   0  0  0  0  0  0  0  0  0  0  0  0
    1.5445    2.9608   -3.9823 C   0  0  0  0  0  0  0  0  0  0  0  0
    2.4073    2.9234   -2.7204 C   0  0  0  0  0  0  0  0  0  0  0  0
    1.6085    2.2078   -1.6899 N   0  0  0  0  0  0  0  0  0  0  0  0
    2.3190    1.2181   -1.0588 C   0  0  0  0  0  0  0  0  0  0  0  0
    2.1782   -0.0778   -1.2250 N   0  0  0  0  0  0  0  0  0  0  0  0
    3.0237   -0.8215   -0.4266 N   0  0  0  0  0  0  0  0  0  0  0  0
    3.7948   -0.0710    0.3232 C   0  0  0  0  0  0  0  0  0  0  0  0
    3.5398    1.6086    0.1049 S   0  0  0  0  0  0  0  0  0  0  0  0
    4.7528   -0.4751    1.2339 N   0  0  0  0  0  0  0  0  0  0  0  0
    5.5911    0.3403    2.0757 C   0  0  0  0  0  0  0  0  0  0  0  0
    6.6600   -0.6142    2.5637 C   0  0  0  0  0  0  0  0  0  0  0  0
    5.9355   -1.9458    2.6294 C   0  0  0  0  0  0  0  0  0  0  0  0
    4.9036   -1.8342    1.5297 C   0  0  0  0  0  0  0  0  0  0  0  0
    4.3202   -2.8026    1.0707 O   0  0  0  0  0  0  0  0  0  0  0  0
   -0.0501    1.3407    0.1247 H   0  0  0  0  0  0  0  0  0  0  0  0
   -0.9345   -0.3154    1.3624 H   0  0  0  0  0  0  0  0  0  0  0  0
   -0.9146   -1.3108   -0.1050 H   0  0  0  0  0  0  0  0  0  0  0  0
   -3.1545    0.6238    0.7233 H   0  0  0  0  0  0  0  0  0  0  0  0
   -3.1526   -0.3028   -0.7643 H   0  0  0  0  0  0  0  0  0  0  0  0
   -3.1302   -2.4516    0.5446 H   0  0  0  0  0  0  0  0  0  0  0  0
   -3.0644   -1.5157    2.0475 H   0  0  0  0  0  0  0  0  0  0  0  0
   -5.7359   -2.9938   -0.0062 H   0  0  0  0  0  0  0  0  0  0  0  0
   -5.2647   -1.5992   -1.0273 H   0  0  0  0  0  0  0  0  0  0  0  0
   -7.8671   -1.8356   -0.1965 H   0  0  0  0  0  0  0  0  0  0  0  0
   -7.0590   -0.2616   -0.2664 H   0  0  0  0  0  0  0  0  0  0  0  0
   -7.6532   -0.2230    2.0152 H   0  0  0  0  0  0  0  0  0  0  0  0
   -7.4702   -1.9991    2.2006 H   0  0  0  0  0  0  0  0  0  0  0  0
   -0.3586    2.7490   -2.1583 H   0  0  0  0  0  0  0  0  0  0  0  0
    1.1031    0.8421   -4.0546 H   0  0  0  0  0  0  0  0  0  0  0  0
   -0.2936    1.8711   -4.4323 H   0  0  0  0  0  0  0  0  0  0  0  0
    2.1405    2.8924   -4.8972 H   0  0  0  0  0  0  0  0  0  0  0  0
    0.9766    3.8986   -4.0191 H   0  0  0  0  0  0  0  0  0  0  0  0
    2.6472    3.9361   -2.3787 H   0  0  0  0  0  0  0  0  0  0  0  0
    3.3498    2.4069   -2.9456 H   0  0  0  0  0  0  0  0  0  0  0  0
    4.9879    0.7203    2.9081 H   0  0  0  0  0  0  0  0  0  0  0  0
    6.0352    1.1737    1.5233 H   0  0  0  0  0  0  0  0  0  0  0  0
    7.4713   -0.6734    1.8270 H   0  0  0  0  0  0  0  0  0  0  0  0
    7.0942   -0.3148    3.5214 H   0  0  0  0  0  0  0  0  0  0  0  0
    6.6132   -2.7833    2.4460 H   0  0  0  0  0  0  0  0  0  0  0  0
    5.4180   -2.0781    3.5842 H   0  0  0  0  0  0  0  0  0  0  0  0
  1  2  2  0
  2  3  1  0
  3  4  1  0
  4  5  1  0
  5  6  1  0
  6  7  1  0
  7  8  1  0
  8  9  1  0
  9 10  1  0
 10 11  1  0
 11 12  2  0
  2 13  1  0
 13 14  1  0
 14 15  1  0
 15 16  1  0
 16 17  1  0
 17 18  1  0
 18 19  2  0
 19 20  1  0
 20 21  2  0
 21 22  1  0
 21 23  1  0
 23 24  1  0
 24 25  1  0
 25 26  1  0
 26 27  1  0
 27 28  2  0
 11  7  1  0
 17 13  1  0
 22 18  1  0
 27 23  1  0
  3 29  1  0
  4 30  1  0
  4 31  1  0
  5 32  1  0
  5 33  1  0
  6 34  1  0
  6 35  1  0
  8 36  1  0
  8 37  1  0
  9 38  1  0
  9 39  1  0
 10 40  1  0
 10 41  1  0
 13 42  1  0
 14 43  1  0
 14 44  1  0
 15 45  1  0
 15 46  1  0
 16 47  1  0
 16 48  1  0
 24 49  1  0
 24 50  1  0
 25 51  1  0
 25 52  1  0
 26 53  1  0
 26 54  1  0
M  END
>  <Unnamed: 0>  (162) 
1008

>  <ID>  (162) 
TRAIN_1008

>  <Canonical_Smiles>  (162) 
O=C(NCCCN1CCCC1=O)C2CCCN2c3nnc(s3)N4CCCC4=O

>  <Inhibition>  (162) 
9.85

>  <TDC_conf_true_inhibitor>  (162) 
0

>  <TDC_conf_non_inhibitor>  (162) 
1

>  <split>  (162) 
1

$$$$
162
     RDKit          3D

 42 44  0  0  0  0  0  0  0  0999 V2000
    5.8041    0.9593   -0.3943 C   0  0  0  0  0  0  0  0  0  0  0  0
    4.5071    0.8177    0.3427 C   0  0  0  0  0  0  0  0  0  0  0  0
    3.6574    1.9125    0.5101 C   0  0  0  0  0  0  0  0  0  0  0  0
    2.4449    1.7197    1.1547 C   0  0  0  0  0  0  0  0  0  0  0  0
    2.0287    0.5289    1.6326 N   0  0  0  0  0  0  0  0  0  0  0  0
    2.8595   -0.5103    1.4567 C   0  0  0  0  0  0  0  0  0  0  0  0
    2.3478   -1.7478    1.9080 N   0  0  0  0  0  0  0  0  0  0  0  0
    1.3864   -2.5355    0.7684 S   0  0  0  0  0  6  0  0  0  0  0  0
    2.1132   -2.5909   -0.4841 O   0  0  0  0  0  0  0  0  0  0  0  0
    0.9096   -3.7516    1.3939 O   0  0  0  0  0  0  0  0  0  0  0  0
   -0.0489   -1.6272    0.4371 C   0  0  0  0  0  0  0  0  0  0  0  0
   -0.4670   -1.2237   -0.8530 C   0  0  0  0  0  0  0  0  0  0  0  0
   -1.6459   -0.5060   -0.7264 C   0  0  0  0  0  0  0  0  0  0  0  0
   -2.4405    0.1083   -1.7648 C   0  0  0  0  0  0  0  0  0  0  0  0
   -3.5518    0.7719   -1.5195 N   0  0  0  0  0  0  0  0  0  0  0  0
   -4.1074    1.2513   -2.6943 C   0  0  0  0  0  0  0  0  0  0  0  0
   -5.3737    2.0217   -2.6186 C   0  0  0  0  0  0  0  0  0  0  0  0
   -3.3982    0.9380   -3.8358 C   0  0  0  0  0  0  0  0  0  0  0  0
   -2.0059    0.0304   -3.4305 S   0  0  0  0  0  0  0  0  0  0  0  0
   -1.9463   -0.4734    0.6292 N   0  0  0  0  0  0  0  0  0  0  0  0
   -3.0987    0.1924    1.2086 C   0  0  0  0  0  0  0  0  0  0  0  0
   -0.9836   -1.1629    1.3495 C   0  0  0  0  0  0  0  0  0  0  0  0
   -1.0184   -1.3101    2.8320 C   0  0  0  0  0  0  0  0  0  0  0  0
    4.0869   -0.4277    0.8150 C   0  0  0  0  0  0  0  0  0  0  0  0
    6.2246    1.9608   -0.2555 H   0  0  0  0  0  0  0  0  0  0  0  0
    6.5438    0.2421   -0.0234 H   0  0  0  0  0  0  0  0  0  0  0  0
    5.6483    0.7860   -1.4635 H   0  0  0  0  0  0  0  0  0  0  0  0
    3.9244    2.8974    0.1404 H   0  0  0  0  0  0  0  0  0  0  0  0
    1.7524    2.5439    1.3016 H   0  0  0  0  0  0  0  0  0  0  0  0
    3.0685   -2.3956    2.2110 H   0  0  0  0  0  0  0  0  0  0  0  0
    0.0544   -1.4370   -1.7783 H   0  0  0  0  0  0  0  0  0  0  0  0
   -6.2239    1.3396   -2.5218 H   0  0  0  0  0  0  0  0  0  0  0  0
   -5.3652    2.6891   -1.7511 H   0  0  0  0  0  0  0  0  0  0  0  0
   -5.5210    2.6329   -3.5146 H   0  0  0  0  0  0  0  0  0  0  0  0
   -3.6249    1.1914   -4.8613 H   0  0  0  0  0  0  0  0  0  0  0  0
   -3.0465    1.2558    0.9615 H   0  0  0  0  0  0  0  0  0  0  0  0
   -4.0044   -0.2721    0.8107 H   0  0  0  0  0  0  0  0  0  0  0  0
   -3.0986    0.0877    2.2946 H   0  0  0  0  0  0  0  0  0  0  0  0
   -1.9484   -1.7930    3.1492 H   0  0  0  0  0  0  0  0  0  0  0  0
   -0.1930   -1.9228    3.2035 H   0  0  0  0  0  0  0  0  0  0  0  0
   -0.9452   -0.3307    3.3157 H   0  0  0  0  0  0  0  0  0  0  0  0
    4.6954   -1.3126    0.6640 H   0  0  0  0  0  0  0  0  0  0  0  0
  1  2  1  0
  2  3  2  0
  3  4  1  0
  4  5  2  0
  5  6  1  0
  6  7  1  0
  7  8  1  0
  8  9  2  0
  8 10  2  0
  8 11  1  0
 11 12  1  0
 12 13  2  0
 13 14  1  0
 14 15  2  0
 15 16  1  0
 16 17  1  0
 16 18  2  0
 18 19  1  0
 13 20  1  0
 20 21  1  0
 20 22  1  0
 22 23  1  0
  6 24  2  0
 24  2  1  0
 22 11  2  0
 19 14  1  0
  1 25  1  0
  1 26  1  0
  1 27  1  0
  3 28  1  0
  4 29  1  0
  7 30  1  0
 12 31  1  0
 17 32  1  0
 17 33  1  0
 17 34  1  0
 18 35  1  0
 21 36  1  0
 21 37  1  0
 21 38  1  0
 23 39  1  0
 23 40  1  0
 23 41  1  0
 24 42  1  0
M  END
>  <Unnamed: 0>  (163) 
1021

>  <ID>  (163) 
TRAIN_1021

>  <Canonical_Smiles>  (163) 
Cc1ccnc(NS(=O)(=O)c2cc(c3nc(C)cs3)n(C)c2C)c1

>  <Inhibition>  (163) 
33.1

>  <TDC_conf_true_inhibitor>  (163) 
1

>  <TDC_conf_non_inhibitor>  (163) 
0

>  <split>  (163) 
1

$$$$
163
     RDKit          3D

 48 52  0  0  0  0  0  0  0  0999 V2000
   -3.3489   -1.7700   -1.9373 C   0  0  0  0  0  0  0  0  0  0  0  0
   -2.9109   -0.3459   -1.5945 C   0  0  0  0  0  0  0  0  0  0  0  0
   -4.0594    0.6275   -1.8710 C   0  0  0  0  0  0  0  0  0  0  0  0
   -2.4503   -0.1998   -0.1329 C   0  0  0  0  0  0  0  0  0  0  0  0
   -1.2453   -0.9552    0.1746 N   0  0  0  0  0  0  0  0  0  0  0  0
   -1.2987   -2.2418    0.7138 C   0  0  0  0  0  0  0  0  0  0  0  0
   -2.2645   -2.9561    0.8797 O   0  0  0  0  0  0  0  0  0  0  0  0
    0.1616   -2.6417    1.0332 C   0  0  0  0  0  0  0  0  0  0  0  0
    0.5512   -3.6928    1.4831 O   0  0  0  0  0  0  0  0  0  0  0  0
    0.9434   -1.4855    0.6064 C   0  0  0  0  0  0  0  0  0  0  0  0
    2.1449   -1.1897    0.1297 C   0  0  0  0  0  0  0  0  0  0  0  0
    2.2226    0.1261   -0.3730 O   0  0  0  0  0  0  0  0  0  0  0  0
    0.8365    0.5376   -0.4811 C   0  0  0  0  0  0  0  0  0  0  0  0
    0.3860    0.3805   -1.8176 O   0  0  0  0  0  0  0  0  0  0  0  0
    0.6888    1.9464    0.0398 C   0  0  0  0  0  0  0  0  0  0  0  0
    1.0206    3.1366   -0.5974 C   0  0  0  0  0  0  0  0  0  0  0  0
    0.8296    4.3394    0.0850 C   0  0  0  0  0  0  0  0  0  0  0  0
    0.3338    4.3467    1.3953 C   0  0  0  0  0  0  0  0  0  0  0  0
    0.0261    3.1507    2.0449 C   0  0  0  0  0  0  0  0  0  0  0  0
    0.1994    1.9539    1.3570 C   0  0  0  0  0  0  0  0  0  0  0  0
    0.0014    0.5471    1.8714 C   0  0  0  0  0  0  0  0  0  0  0  0
   -1.2120    0.3808    2.5803 O   0  0  0  0  0  0  0  0  0  0  0  0
    1.0501    0.2141    2.7635 O   0  0  0  0  0  0  0  0  0  0  0  0
    0.0269   -0.3139    0.5363 C   0  0  0  0  0  0  0  0  0  0  0  0
    3.3107   -1.9807   -0.0350 C   0  0  0  0  0  0  0  0  0  0  0  0
    3.5305   -3.2572    0.4358 C   0  0  0  0  0  0  0  0  0  0  0  0
    4.7720   -3.6904    0.0863 O   0  0  0  0  0  0  0  0  0  0  0  0
    5.3585   -2.6865   -0.6120 C   0  0  0  0  0  0  0  0  0  0  0  0
    4.5060   -1.6127   -0.7128 C   0  0  0  0  0  0  0  0  0  0  0  0
   -3.7348   -1.8216   -2.9612 H   0  0  0  0  0  0  0  0  0  0  0  0
   -4.1383   -2.1175   -1.2624 H   0  0  0  0  0  0  0  0  0  0  0  0
   -2.5088   -2.4682   -1.8745 H   0  0  0  0  0  0  0  0  0  0  0  0
   -2.0834   -0.0818   -2.2620 H   0  0  0  0  0  0  0  0  0  0  0  0
   -4.3798    0.5659   -2.9164 H   0  0  0  0  0  0  0  0  0  0  0  0
   -3.7490    1.6602   -1.6793 H   0  0  0  0  0  0  0  0  0  0  0  0
   -4.9260    0.4099   -1.2372 H   0  0  0  0  0  0  0  0  0  0  0  0
   -3.2481   -0.5259    0.5456 H   0  0  0  0  0  0  0  0  0  0  0  0
   -2.2570    0.8568    0.0800 H   0  0  0  0  0  0  0  0  0  0  0  0
    0.5665    1.2061   -2.2906 H   0  0  0  0  0  0  0  0  0  0  0  0
    1.4386    3.1496   -1.6000 H   0  0  0  0  0  0  0  0  0  0  0  0
    1.0822    5.2816   -0.3982 H   0  0  0  0  0  0  0  0  0  0  0  0
    0.2056    5.2949    1.9145 H   0  0  0  0  0  0  0  0  0  0  0  0
   -0.3236    3.1729    3.0736 H   0  0  0  0  0  0  0  0  0  0  0  0
   -1.5274    1.2466    2.8769 H   0  0  0  0  0  0  0  0  0  0  0  0
    1.4416    1.0332    3.1071 H   0  0  0  0  0  0  0  0  0  0  0  0
    2.9488   -3.9663    1.0093 H   0  0  0  0  0  0  0  0  0  0  0  0
    6.3621   -2.8843   -0.9615 H   0  0  0  0  0  0  0  0  0  0  0  0
    4.7198   -0.6798   -1.2150 H   0  0  0  0  0  0  0  0  0  0  0  0
  1  2  1  0
  2  3  1  0
  2  4  1  0
  4  5  1  0
  5  6  1  0
  6  7  2  0
  6  8  1  0
  8  9  2  0
  8 10  1  0
 10 11  2  0
 11 12  1  0
 12 13  1  0
 13 14  1  0
 13 15  1  0
 15 16  2  0
 16 17  1  0
 17 18  2  0
 18 19  1  0
 19 20  2  0
 20 21  1  0
 21 22  1  0
 21 23  1  0
 21 24  1  0
 11 25  1  0
 25 26  2  0
 26 27  1  0
 27 28  1  0
 28 29  2  0
 24  5  1  0
 24 10  1  0
 24 13  1  0
 20 15  1  0
 29 25  1  0
  1 30  1  0
  1 31  1  0
  1 32  1  0
  2 33  1  0
  3 34  1  0
  3 35  1  0
  3 36  1  0
  4 37  1  0
  4 38  1  0
 14 39  1  0
 16 40  1  0
 17 41  1  0
 18 42  1  0
 19 43  1  0
 22 44  1  0
 23 45  1  0
 26 46  1  0
 28 47  1  0
 29 48  1  0
M  END
>  <Unnamed: 0>  (164) 
1036

>  <ID>  (164) 
TRAIN_1036

>  <Canonical_Smiles>  (164) 
CC(C)CN1C(=O)C(=O)C2=C(OC3(O)c4ccccc4C(O)(O)C123)c5cocc5

>  <Inhibition>  (164) 
42.1

>  <TDC_conf_true_inhibitor>  (164) 
0

>  <TDC_conf_non_inhibitor>  (164) 
1

>  <split>  (164) 
1

$$$$
164
     RDKit          3D

 37 38  0  0  0  0  0  0  0  0999 V2000
   -1.5557    3.5464    0.8816 C   0  0  0  0  0  0  0  0  0  0  0  0
   -1.5054    2.4056   -0.0899 C   0  0  0  0  0  0  0  0  0  0  0  0
   -2.0366    2.4224   -1.1928 O   0  0  0  0  0  0  0  0  0  0  0  0
   -0.7733    1.3790    0.4707 O   0  0  0  0  0  0  0  0  0  0  0  0
   -0.6900    0.2132   -0.4315 N   0  0  0  0  0  0  0  0  0  0  0  0
   -1.3362   -0.9102    0.3362 C   0  0  0  0  0  0  0  0  0  0  0  0
   -2.7980   -0.5183    0.6767 C   0  0  0  0  0  0  0  0  0  0  0  0
   -1.4441   -2.1988   -0.5113 C   0  0  0  0  0  0  0  0  0  0  0  0
   -0.5912   -1.2287    1.6687 C   0  0  0  0  0  0  0  0  0  0  0  0
    0.8734   -1.2302    1.4444 C   0  0  0  0  0  0  0  0  0  0  0  0
    1.7400   -1.7882    2.2909 N   0  0  0  0  0  0  0  0  0  0  0  0
    2.9839   -1.5710    1.7142 O   0  0  0  0  0  0  0  0  0  0  0  0
    2.8351   -0.8998    0.5371 C   0  0  0  0  0  0  0  0  0  0  0  0
    3.9558   -0.6422   -0.1567 N   0  0  0  0  0  0  0  0  0  0  0  0
    1.5023   -0.6393    0.3226 C   0  0  0  0  0  0  0  0  0  0  0  0
    0.7702    0.0562   -0.7903 C   0  0  0  0  0  0  0  0  0  0  0  0
    0.8876   -0.7347   -2.1140 C   0  0  0  0  0  0  0  0  0  0  0  0
    1.4059    1.4436   -1.0840 C   0  0  0  0  0  0  0  0  0  0  0  0
   -2.0360    3.2228    1.8085 H   0  0  0  0  0  0  0  0  0  0  0  0
   -0.5442    3.9105    1.0779 H   0  0  0  0  0  0  0  0  0  0  0  0
   -2.1433    4.3627    0.4520 H   0  0  0  0  0  0  0  0  0  0  0  0
   -3.3601   -0.2626   -0.2292 H   0  0  0  0  0  0  0  0  0  0  0  0
   -2.8535    0.3345    1.3618 H   0  0  0  0  0  0  0  0  0  0  0  0
   -3.3230   -1.3459    1.1687 H   0  0  0  0  0  0  0  0  0  0  0  0
   -0.4924   -2.7298   -0.5934 H   0  0  0  0  0  0  0  0  0  0  0  0
   -1.8180   -1.9831   -1.5186 H   0  0  0  0  0  0  0  0  0  0  0  0
   -2.1426   -2.9117   -0.0559 H   0  0  0  0  0  0  0  0  0  0  0  0
   -0.8201   -0.4687    2.4270 H   0  0  0  0  0  0  0  0  0  0  0  0
   -0.9197   -2.1947    2.0715 H   0  0  0  0  0  0  0  0  0  0  0  0
    3.9033   -0.4894   -1.1577 H   0  0  0  0  0  0  0  0  0  0  0  0
    4.7913   -1.1511    0.1203 H   0  0  0  0  0  0  0  0  0  0  0  0
    1.9065   -0.6809   -2.5177 H   0  0  0  0  0  0  0  0  0  0  0  0
    0.2187   -0.3241   -2.8797 H   0  0  0  0  0  0  0  0  0  0  0  0
    0.6723   -1.7991   -2.0111 H   0  0  0  0  0  0  0  0  0  0  0  0
    2.4213    1.3463   -1.4859 H   0  0  0  0  0  0  0  0  0  0  0  0
    0.8238    1.9984   -1.8292 H   0  0  0  0  0  0  0  0  0  0  0  0
    1.4922    2.0608   -0.1819 H   0  0  0  0  0  0  0  0  0  0  0  0
  1  2  1  0
  2  3  2  0
  2  4  1  0
  4  5  1  0
  5  6  1  0
  6  7  1  0
  6  8  1  0
  6  9  1  0
  9 10  1  0
 10 11  2  0
 11 12  1  0
 12 13  1  0
 13 14  1  0
 13 15  2  0
 15 16  1  0
 16 17  1  0
 16 18  1  0
 16  5  1  0
 15 10  1  0
  1 19  1  0
  1 20  1  0
  1 21  1  0
  7 22  1  0
  7 23  1  0
  7 24  1  0
  8 25  1  0
  8 26  1  0
  8 27  1  0
  9 28  1  0
  9 29  1  0
 14 30  1  0
 14 31  1  0
 17 32  1  0
 17 33  1  0
 17 34  1  0
 18 35  1  0
 18 36  1  0
 18 37  1  0
M  END
>  <Unnamed: 0>  (165) 
1037

>  <ID>  (165) 
TRAIN_1037

>  <Canonical_Smiles>  (165) 
CC(=O)ON1C(C)(C)Cc2noc(N)c2C1(C)C

>  <Inhibition>  (165) 
10.6

>  <TDC_conf_true_inhibitor>  (165) 
0

>  <TDC_conf_non_inhibitor>  (165) 
1

>  <split>  (165) 
1

$$$$
165
     RDKit          3D

 49 52  0  0  0  0  0  0  0  0999 V2000
   -3.0374   -5.8580    2.1874 O   0  0  0  0  0  0  0  0  0  0  0  0
   -3.7273   -4.7378    2.7377 C   0  0  0  0  0  0  0  0  0  0  0  0
   -4.3686   -3.9189    1.6180 C   0  0  0  0  0  0  0  0  0  0  0  0
   -3.3556   -3.4389    0.7224 O   0  0  0  0  0  0  0  0  0  0  0  0
   -2.8379   -2.1635    1.1130 C   0  0  0  0  0  0  0  0  0  0  0  0
   -1.6520   -1.7981    0.2141 C   0  0  0  0  0  0  0  0  0  0  0  0
   -1.2041   -0.4359    0.4940 N   0  0  0  0  0  0  0  0  0  0  0  0
    0.0240   -0.0769   -0.0735 C   0  0  0  0  0  0  0  0  0  0  0  0
    0.9046   -1.0345   -0.4350 N   0  0  0  0  0  0  0  0  0  0  0  0
    2.1001   -0.6994   -0.9619 C   0  0  0  0  0  0  0  0  0  0  0  0
    2.5292    0.5493   -1.1854 N   0  0  0  0  0  0  0  0  0  0  0  0
    1.6455    1.4847   -0.8096 C   0  0  0  0  0  0  0  0  0  0  0  0
    2.0148    3.1381   -0.9860 S   0  0  0  0  0  0  0  0  0  0  0  0
    0.5164    3.6158   -0.3115 C   0  0  0  0  0  0  0  0  0  0  0  0
   -0.2539    2.5191    0.0242 C   0  0  0  0  0  0  0  0  0  0  0  0
    0.3963    1.2684   -0.2565 C   0  0  0  0  0  0  0  0  0  0  0  0
    0.1921    5.0357   -0.1737 C   0  0  0  0  0  0  0  0  0  0  0  0
   -0.9199    5.5707   -0.8384 C   0  0  0  0  0  0  0  0  0  0  0  0
   -1.2418    6.9240   -0.7057 C   0  0  0  0  0  0  0  0  0  0  0  0
   -0.4595    7.7515    0.0990 C   0  0  0  0  0  0  0  0  0  0  0  0
    0.6475    7.2294    0.7676 C   0  0  0  0  0  0  0  0  0  0  0  0
    0.9716    5.8773    0.6329 C   0  0  0  0  0  0  0  0  0  0  0  0
    3.0150   -1.8101   -1.3115 C   0  0  0  0  0  0  0  0  0  0  0  0
    4.2771   -1.5737   -1.8914 C   0  0  0  0  0  0  0  0  0  0  0  0
    5.1457   -2.6238   -2.2111 C   0  0  0  0  0  0  0  0  0  0  0  0
    4.7718   -3.9397   -1.9588 C   0  0  0  0  0  0  0  0  0  0  0  0
    3.5301   -4.2068   -1.3901 C   0  0  0  0  0  0  0  0  0  0  0  0
    2.6650   -3.1543   -1.0712 C   0  0  0  0  0  0  0  0  0  0  0  0
   -2.5847   -5.5280    1.3860 H   0  0  0  0  0  0  0  0  0  0  0  0
   -2.9988   -4.1460    3.2994 H   0  0  0  0  0  0  0  0  0  0  0  0
   -4.4889   -5.1065    3.4276 H   0  0  0  0  0  0  0  0  0  0  0  0
   -4.9701   -3.0935    2.0178 H   0  0  0  0  0  0  0  0  0  0  0  0
   -5.0220   -4.5683    1.0247 H   0  0  0  0  0  0  0  0  0  0  0  0
   -3.6318   -1.4146    1.0159 H   0  0  0  0  0  0  0  0  0  0  0  0
   -2.5100   -2.1871    2.1575 H   0  0  0  0  0  0  0  0  0  0  0  0
   -1.9381   -1.8962   -0.8420 H   0  0  0  0  0  0  0  0  0  0  0  0
   -0.8604   -2.5366    0.4004 H   0  0  0  0  0  0  0  0  0  0  0  0
   -1.9086    0.2768    0.3381 H   0  0  0  0  0  0  0  0  0  0  0  0
   -1.2353    2.6069    0.4732 H   0  0  0  0  0  0  0  0  0  0  0  0
   -1.5283    4.9439   -1.4862 H   0  0  0  0  0  0  0  0  0  0  0  0
   -2.0971    7.3338   -1.2362 H   0  0  0  0  0  0  0  0  0  0  0  0
   -0.7078    8.8054    0.1999 H   0  0  0  0  0  0  0  0  0  0  0  0
    1.2637    7.8754    1.3878 H   0  0  0  0  0  0  0  0  0  0  0  0
    1.8360    5.4857    1.1654 H   0  0  0  0  0  0  0  0  0  0  0  0
    4.5985   -0.5539   -2.0988 H   0  0  0  0  0  0  0  0  0  0  0  0
    6.1153   -2.4089   -2.6546 H   0  0  0  0  0  0  0  0  0  0  0  0
    5.4467   -4.7561   -2.2037 H   0  0  0  0  0  0  0  0  0  0  0  0
    3.2313   -5.2325   -1.1893 H   0  0  0  0  0  0  0  0  0  0  0  0
    1.7018   -3.3936   -0.6217 H   0  0  0  0  0  0  0  0  0  0  0  0
  1  2  1  0
  2  3  1  0
  3  4  1  0
  4  5  1  0
  5  6  1  0
  6  7  1  0
  7  8  1  0
  8  9  2  0
  9 10  1  0
 10 11  2  0
 11 12  1  0
 12 13  1  0
 13 14  1  0
 14 15  2  0
 15 16  1  0
 14 17  1  0
 17 18  2  0
 18 19  1  0
 19 20  2  0
 20 21  1  0
 21 22  2  0
 10 23  1  0
 23 24  2  0
 24 25  1  0
 25 26  2  0
 26 27  1  0
 27 28  2  0
 16  8  1  0
 16 12  2  0
 22 17  1  0
 28 23  1  0
  1 29  1  0
  2 30  1  0
  2 31  1  0
  3 32  1  0
  3 33  1  0
  5 34  1  0
  5 35  1  0
  6 36  1  0
  6 37  1  0
  7 38  1  0
 15 39  1  0
 18 40  1  0
 19 41  1  0
 20 42  1  0
 21 43  1  0
 22 44  1  0
 24 45  1  0
 25 46  1  0
 26 47  1  0
 27 48  1  0
 28 49  1  0
M  END
>  <Unnamed: 0>  (166) 
1047

>  <ID>  (166) 
TRAIN_1047

>  <Canonical_Smiles>  (166) 
OCCOCCNc1nc(nc2sc(cc12)c3ccccc3)c4ccccc4

>  <Inhibition>  (166) 
39.4

>  <TDC_conf_true_inhibitor>  (166) 
1

>  <TDC_conf_non_inhibitor>  (166) 
0

>  <split>  (166) 
1

$$$$
166
     RDKit          3D

 28 30  0  0  0  0  0  0  0  0999 V2000
   -1.6193    1.6249   -1.9825 O   0  0  0  0  0  0  0  0  0  0  0  0
   -2.0705    0.3536   -1.9003 C   0  0  0  0  0  0  0  0  0  0  0  0
   -2.4022   -0.2525   -2.9037 O   0  0  0  0  0  0  0  0  0  0  0  0
   -2.2081   -0.0878   -0.4735 C   0  0  0  0  0  0  0  0  0  0  0  0
   -2.6997   -1.5403   -0.3738 C   0  0  0  0  0  0  0  0  0  0  0  0
   -1.4451   -2.2615   -0.2690 O   0  0  0  0  0  0  0  0  0  0  0  0
   -0.9430   -1.5795    0.9068 C   0  0  0  0  0  0  0  0  0  0  0  0
   -2.1211   -1.7842    1.8156 C   0  0  0  0  0  0  0  0  0  0  0  0
   -3.2046   -1.7741    1.0255 C   0  0  0  0  0  0  0  0  0  0  0  0
   -0.9133   -0.1310    0.3863 C   0  0  0  0  0  0  0  0  0  0  0  0
    0.4294    0.0788   -0.3107 C   0  0  0  0  0  0  0  0  0  0  0  0
    0.5748   -0.0589   -1.5182 O   0  0  0  0  0  0  0  0  0  0  0  0
    1.4232    0.3913    0.5972 N   0  0  0  0  0  0  0  0  0  0  0  0
    2.7502    0.6145    0.3333 C   0  0  0  0  0  0  0  0  0  0  0  0
    3.5766    0.9291    1.3047 N   0  0  0  0  0  0  0  0  0  0  0  0
    4.8482    1.0969    0.7900 C   0  0  0  0  0  0  0  0  0  0  0  0
    4.9666    0.9059   -0.5691 C   0  0  0  0  0  0  0  0  0  0  0  0
    3.4348    0.5030   -1.2215 S   0  0  0  0  0  0  0  0  0  0  0  0
   -1.4828    1.7516   -2.9462 H   0  0  0  0  0  0  0  0  0  0  0  0
   -2.9534    0.5836   -0.0238 H   0  0  0  0  0  0  0  0  0  0  0  0
   -3.3250   -1.9445   -1.1713 H   0  0  0  0  0  0  0  0  0  0  0  0
   -0.0069   -2.0286    1.2441 H   0  0  0  0  0  0  0  0  0  0  0  0
   -2.0937   -1.8983    2.8872 H   0  0  0  0  0  0  0  0  0  0  0  0
   -4.2365   -1.8718    1.3220 H   0  0  0  0  0  0  0  0  0  0  0  0
   -0.9925    0.5929    1.2081 H   0  0  0  0  0  0  0  0  0  0  0  0
    1.2055    0.5116    1.5761 H   0  0  0  0  0  0  0  0  0  0  0  0
    5.6607    1.3605    1.4563 H   0  0  0  0  0  0  0  0  0  0  0  0
    5.8478    0.9799   -1.1896 H   0  0  0  0  0  0  0  0  0  0  0  0
  1  2  1  0
  2  3  2  0
  2  4  1  0
  4  5  1  0
  5  6  1  0
  6  7  1  0
  7  8  1  0
  8  9  2  0
  7 10  1  0
 10 11  1  0
 11 12  2  0
 11 13  1  0
 13 14  1  0
 14 15  2  0
 15 16  1  0
 16 17  2  0
 17 18  1  0
 10  4  1  0
  9  5  1  0
 18 14  1  0
  1 19  1  0
  4 20  1  0
  5 21  1  0
  7 22  1  0
  8 23  1  0
  9 24  1  0
 10 25  1  0
 13 26  1  0
 16 27  1  0
 17 28  1  0
M  END
>  <Unnamed: 0>  (167) 
1058

>  <ID>  (167) 
TRAIN_1058

>  <Canonical_Smiles>  (167) 
OC(=O)C1C2OC(C=C2)C1C(=O)Nc3nccs3

>  <Inhibition>  (167) 
19.0

>  <TDC_conf_true_inhibitor>  (167) 
0

>  <TDC_conf_non_inhibitor>  (167) 
1

>  <split>  (167) 
1

$$$$
167
     RDKit          3D

 58 62  0  0  0  0  0  0  0  0999 V2000
    8.1002   -1.4428   -1.6547 C   0  0  0  0  0  0  0  0  0  0  0  0
    7.1770   -0.7237   -0.7147 C   0  0  0  0  0  0  0  0  0  0  0  0
    7.6818   -0.0811    0.4213 C   0  0  0  0  0  0  0  0  0  0  0  0
    6.8297    0.6216    1.2790 C   0  0  0  0  0  0  0  0  0  0  0  0
    7.3686    1.2727    2.5184 C   0  0  0  0  0  0  0  0  0  0  0  0
    5.4578    0.6628    0.9938 C   0  0  0  0  0  0  0  0  0  0  0  0
    4.9361    0.0411   -0.1493 C   0  0  0  0  0  0  0  0  0  0  0  0
    3.5447    0.1460   -0.3543 N   0  0  0  0  0  0  0  0  0  0  0  0
    2.7986   -0.3218   -1.4261 C   0  0  0  0  0  0  0  0  0  0  0  0
    3.2669   -0.8538   -2.4274 O   0  0  0  0  0  0  0  0  0  0  0  0
    1.3687   -0.0793   -1.2795 C   0  0  0  0  0  0  0  0  0  0  0  0
    0.6792    0.2319   -2.4132 O   0  0  0  0  0  0  0  0  0  0  0  0
   -0.6083    0.4597   -2.0697 C   0  0  0  0  0  0  0  0  0  0  0  0
   -1.6009    0.8069   -2.9839 C   0  0  0  0  0  0  0  0  0  0  0  0
   -2.8822    1.0010   -2.4751 C   0  0  0  0  0  0  0  0  0  0  0  0
   -3.1345    0.8684   -1.1107 C   0  0  0  0  0  0  0  0  0  0  0  0
   -4.4400    1.0706   -0.7469 O   0  0  0  0  0  0  0  0  0  0  0  0
   -4.8355    0.4730    0.5037 C   0  0  0  0  0  0  0  0  0  0  0  0
   -4.9321   -1.0691    0.3305 C   0  0  0  0  0  0  0  0  0  0  0  0
   -6.0870   -1.6761    1.1188 C   0  0  0  0  0  0  0  0  0  0  0  0
   -7.4343   -1.1276    0.6485 C   0  0  0  0  0  0  0  0  0  0  0  0
   -7.3557    0.3160    0.1507 C   0  0  0  0  0  0  0  0  0  0  0  0
   -6.2254    1.0797    0.8343 C   0  0  0  0  0  0  0  0  0  0  0  0
   -3.8649    0.8979    1.6045 C   0  0  0  0  0  0  0  0  0  0  0  0
   -2.4361    0.6020    1.2353 C   0  0  0  0  0  0  0  0  0  0  0  0
   -1.5838    0.4853    2.1087 O   0  0  0  0  0  0  0  0  0  0  0  0
   -2.1029    0.5647   -0.2028 C   0  0  0  0  0  0  0  0  0  0  0  0
   -0.7960    0.3083   -0.6974 C   0  0  0  0  0  0  0  0  0  0  0  0
    0.4933   -0.1121   -0.1944 C   0  0  0  0  0  0  0  0  0  0  0  0
    0.8326   -0.5575    1.1856 C   0  0  0  0  0  0  0  0  0  0  0  0
    5.8046   -0.6454   -0.9993 C   0  0  0  0  0  0  0  0  0  0  0  0
    8.4324   -0.7629   -2.4451 H   0  0  0  0  0  0  0  0  0  0  0  0
    8.9792   -1.8250   -1.1251 H   0  0  0  0  0  0  0  0  0  0  0  0
    7.5988   -2.3022   -2.1121 H   0  0  0  0  0  0  0  0  0  0  0  0
    8.7472   -0.1296    0.6384 H   0  0  0  0  0  0  0  0  0  0  0  0
    7.3364    0.5681    3.3551 H   0  0  0  0  0  0  0  0  0  0  0  0
    8.4032    1.5997    2.3705 H   0  0  0  0  0  0  0  0  0  0  0  0
    6.7826    2.1601    2.7795 H   0  0  0  0  0  0  0  0  0  0  0  0
    4.7983    1.1949    1.6755 H   0  0  0  0  0  0  0  0  0  0  0  0
    3.0388    0.6788    0.3400 H   0  0  0  0  0  0  0  0  0  0  0  0
   -1.3805    0.9054   -4.0409 H   0  0  0  0  0  0  0  0  0  0  0  0
   -3.6943    1.2552   -3.1533 H   0  0  0  0  0  0  0  0  0  0  0  0
   -3.9995   -1.5565    0.6382 H   0  0  0  0  0  0  0  0  0  0  0  0
   -5.0612   -1.3206   -0.7310 H   0  0  0  0  0  0  0  0  0  0  0  0
   -6.0820   -2.7675    1.0192 H   0  0  0  0  0  0  0  0  0  0  0  0
   -5.9533   -1.4605    2.1861 H   0  0  0  0  0  0  0  0  0  0  0  0
   -7.8332   -1.7565   -0.1567 H   0  0  0  0  0  0  0  0  0  0  0  0
   -8.1509   -1.1986    1.4756 H   0  0  0  0  0  0  0  0  0  0  0  0
   -8.3141    0.8171    0.3278 H   0  0  0  0  0  0  0  0  0  0  0  0
   -7.1964    0.3224   -0.9348 H   0  0  0  0  0  0  0  0  0  0  0  0
   -6.2635    2.1294    0.5166 H   0  0  0  0  0  0  0  0  0  0  0  0
   -6.4058    1.0651    1.9173 H   0  0  0  0  0  0  0  0  0  0  0  0
   -4.0998    0.3810    2.5420 H   0  0  0  0  0  0  0  0  0  0  0  0
   -3.9217    1.9799    1.7784 H   0  0  0  0  0  0  0  0  0  0  0  0
    1.7606   -1.1377    1.2053 H   0  0  0  0  0  0  0  0  0  0  0  0
    0.9594    0.3026    1.8494 H   0  0  0  0  0  0  0  0  0  0  0  0
    0.0582   -1.2211    1.5816 H   0  0  0  0  0  0  0  0  0  0  0  0
    5.4406   -1.1400   -1.8949 H   0  0  0  0  0  0  0  0  0  0  0  0
  1  2  1  0
  2  3  2  0
  3  4  1  0
  4  5  1  0
  4  6  2  0
  6  7  1  0
  7  8  1  0
  8  9  1  0
  9 10  2  0
  9 11  1  0
 11 12  1  0
 12 13  1  0
 13 14  2  0
 14 15  1  0
 15 16  2  0
 16 17  1  0
 17 18  1  0
 18 19  1  0
 19 20  1  0
 20 21  1  0
 21 22  1  0
 22 23  1  0
 18 24  1  0
 24 25  1  0
 25 26  2  0
 25 27  1  0
 27 28  2  0
 28 29  1  0
 29 30  1  0
  7 31  2  0
 31  2  1  0
 29 11  2  0
 28 13  1  0
 27 16  1  0
 23 18  1  0
  1 32  1  0
  1 33  1  0
  1 34  1  0
  3 35  1  0
  5 36  1  0
  5 37  1  0
  5 38  1  0
  6 39  1  0
  8 40  1  0
 14 41  1  0
 15 42  1  0
 19 43  1  0
 19 44  1  0
 20 45  1  0
 20 46  1  0
 21 47  1  0
 21 48  1  0
 22 49  1  0
 22 50  1  0
 23 51  1  0
 23 52  1  0
 24 53  1  0
 24 54  1  0
 30 55  1  0
 30 56  1  0
 30 57  1  0
 31 58  1  0
M  END
>  <Unnamed: 0>  (168) 
1059

>  <ID>  (168) 
TRAIN_1059

>  <Canonical_Smiles>  (168) 
Cc1cc(C)cc(NC(=O)c2oc3ccc4OC5(CCCCC5)CC(=O)c4c3c2C)c1

>  <Inhibition>  (168) 
46.5

>  <TDC_conf_true_inhibitor>  (168) 
1

>  <TDC_conf_non_inhibitor>  (168) 
0

>  <split>  (168) 
1

$$$$
168
     RDKit          3D

 71 76  0  0  0  0  0  0  0  0999 V2000
   -1.8728   -2.0970    2.6411 C   0  0  0  0  0  0  0  0  0  0  0  0
   -2.0879   -2.4820    1.1862 C   0  0  0  0  0  0  0  0  0  0  0  0
   -1.9922   -1.4106    0.2019 N   0  0  0  0  0  0  0  0  0  0  0  0
   -3.1585   -0.5298    0.1350 C   0  0  0  0  0  0  0  0  0  0  0  0
   -3.0530    0.4919   -1.0434 C   0  0  2  0  0  0  0  0  0  0  0  0
   -4.0988    1.6237   -0.8352 C   0  0  0  0  0  0  0  0  0  0  0  0
   -5.4247    1.0886   -0.8798 O   0  0  0  0  0  0  0  0  0  0  0  0
   -6.2492    1.5663    0.1827 C   0  0  0  0  0  0  0  0  0  0  0  0
   -3.3655   -0.1966   -2.3954 C   0  0  0  0  0  0  0  0  0  0  0  0
   -2.4242   -1.3355   -2.7247 C   0  0  0  0  0  0  0  0  0  0  0  0
   -0.9620   -0.9268   -2.6041 C   0  0  2  0  0  0  0  0  0  0  0  0
   -0.1750   -2.1072   -2.7361 O   0  0  0  0  0  0  0  0  0  0  0  0
   -0.5634   -0.0915   -1.3434 C   0  0  1  0  0  0  0  0  0  0  0  0
    0.9221    0.4338   -1.5463 C   0  0  0  0  0  0  0  0  0  0  0  0
    2.0111   -0.6613   -1.6967 C   0  0  0  0  0  0  0  0  0  0  0  0
    3.1585   -0.2885   -0.7431 C   0  0  2  0  0  0  0  0  0  0  0  0
    2.9713   -0.9695    0.6290 C   0  0  2  0  0  0  0  0  0  0  0  0
    2.0001   -0.2408    1.5800 C   0  0  0  0  0  0  0  0  0  0  0  0
    1.0949    0.8540    0.9647 C   0  0  2  0  0  0  0  0  0  0  0  0
    1.1902    1.9949    1.8463 O   0  0  0  0  0  0  0  0  0  0  0  0
   -0.4012    0.4479    0.9589 C   0  0  1  0  0  0  0  0  0  0  0  0
   -1.2284    1.5939    0.3257 C   0  0  0  0  0  0  0  0  0  0  0  0
   -1.5963    1.0673   -1.0803 C   0  0  0  0  0  0  0  0  0  0  0  0
   -0.6695   -0.7852    0.0408 C   0  0  1  0  0  0  0  0  0  0  0  0
    1.5141    1.3351   -0.4408 C   0  0  0  0  0  0  0  0  0  0  0  0
    3.0286    1.2286   -0.6519 C   0  0  1  0  0  0  0  0  0  0  0  0
    3.7391    1.8428    0.4250 O   0  0  0  0  0  0  0  0  0  0  0  0
    5.0975    1.8126    0.3228 C   0  0  0  0  0  0  0  0  0  0  0  0
    5.7309    1.4020   -0.6375 O   0  0  0  0  0  0  0  0  0  0  0  0
    5.7097    2.3734    1.5695 C   0  0  0  0  0  0  0  0  0  0  0  0
    4.2315   -1.0355    1.3242 O   0  0  0  0  0  0  0  0  0  0  0  0
    5.0344   -2.1467    0.9419 C   0  0  0  0  0  0  0  0  0  0  0  0
   -2.5398   -1.2891    2.9563 H   0  0  0  0  0  0  0  0  0  0  0  0
   -0.8382   -1.7935    2.8246 H   0  0  0  0  0  0  0  0  0  0  0  0
   -2.0722   -2.9594    3.2844 H   0  0  0  0  0  0  0  0  0  0  0  0
   -1.3698   -3.2665    0.9201 H   0  0  0  0  0  0  0  0  0  0  0  0
   -3.0715   -2.9590    1.0953 H   0  0  0  0  0  0  0  0  0  0  0  0
   -3.2861   -0.0051    1.0889 H   0  0  0  0  0  0  0  0  0  0  0  0
   -4.0663   -1.1327    0.0023 H   0  0  0  0  0  0  0  0  0  0  0  0
   -3.9367    2.1607    0.1044 H   0  0  0  0  0  0  0  0  0  0  0  0
   -4.0197    2.3595   -1.6439 H   0  0  0  0  0  0  0  0  0  0  0  0
   -7.2615    1.1752    0.0391 H   0  0  0  0  0  0  0  0  0  0  0  0
   -6.2959    2.6628    0.1750 H   0  0  0  0  0  0  0  0  0  0  0  0
   -5.8667    1.2041    1.1466 H   0  0  0  0  0  0  0  0  0  0  0  0
   -3.3134    0.5490   -3.2015 H   0  0  0  0  0  0  0  0  0  0  0  0
   -4.3897   -0.5907   -2.4074 H   0  0  0  0  0  0  0  0  0  0  0  0
   -2.6190   -1.6800   -3.7495 H   0  0  0  0  0  0  0  0  0  0  0  0
   -2.6374   -2.2151   -2.1066 H   0  0  0  0  0  0  0  0  0  0  0  0
   -0.7350   -0.3075   -3.4812 H   0  0  0  0  0  0  0  0  0  0  0  0
   -0.5530   -2.6402   -3.4574 H   0  0  0  0  0  0  0  0  0  0  0  0
    0.9296    1.0225   -2.4759 H   0  0  0  0  0  0  0  0  0  0  0  0
    2.3779   -0.6524   -2.7310 H   0  0  0  0  0  0  0  0  0  0  0  0
    1.6711   -1.6766   -1.4859 H   0  0  0  0  0  0  0  0  0  0  0  0
    4.1173   -0.5748   -1.1845 H   0  0  0  0  0  0  0  0  0  0  0  0
    2.6066   -1.9960    0.4950 H   0  0  0  0  0  0  0  0  0  0  0  0
    1.3826   -0.9998    2.0760 H   0  0  0  0  0  0  0  0  0  0  0  0
    2.5766    0.1910    2.4089 H   0  0  0  0  0  0  0  0  0  0  0  0
    2.1246    2.2775    1.8432 H   0  0  0  0  0  0  0  0  0  0  0  0
   -0.7337    0.2925    1.9901 H   0  0  0  0  0  0  0  0  0  0  0  0
   -2.0873    1.8204    0.9620 H   0  0  0  0  0  0  0  0  0  0  0  0
   -0.6936    2.5463    0.2533 H   0  0  0  0  0  0  0  0  0  0  0  0
   -1.5132    1.8583   -1.8363 H   0  0  0  0  0  0  0  0  0  0  0  0
    0.0983   -1.5544    0.1456 H   0  0  0  0  0  0  0  0  0  0  0  0
    1.2246    2.3826   -0.5939 H   0  0  0  0  0  0  0  0  0  0  0  0
    3.3040    1.7160   -1.5982 H   0  0  0  0  0  0  0  0  0  0  0  0
    5.3554    1.8119    2.4385 H   0  0  0  0  0  0  0  0  0  0  0  0
    5.4476    3.4309    1.6643 H   0  0  0  0  0  0  0  0  0  0  0  0
    6.7993    2.2812    1.5166 H   0  0  0  0  0  0  0  0  0  0  0  0
    4.5194   -3.0856    1.1675 H   0  0  0  0  0  0  0  0  0  0  0  0
    5.2932   -2.1045   -0.1191 H   0  0  0  0  0  0  0  0  0  0  0  0
    5.9600   -2.1121    1.5230 H   0  0  0  0  0  0  0  0  0  0  0  0
  1  2  1  0
  2  3  1  0
  3  4  1  0
  4  5  1  0
  5  6  1  1
  6  7  1  0
  7  8  1  0
  5  9  1  0
  9 10  1  0
 10 11  1  0
 11 12  1  0
 11 13  1  0
 13 14  1  6
 14 15  1  0
 15 16  1  0
 16 17  1  0
 17 18  1  0
 18 19  1  0
 19 20  1  1
 19 21  1  0
 21 22  1  0
 22 23  1  0
 21 24  1  0
 19 25  1  0
 25 26  1  0
 26 27  1  0
 27 28  1  0
 28 29  2  0
 28 30  1  0
 17 31  1  0
 31 32  1  0
 24  3  1  0
 23  5  1  0
 23 13  1  0
 24 13  1  0
 25 14  1  0
 26 16  1  0
  1 33  1  0
  1 34  1  0
  1 35  1  0
  2 36  1  0
  2 37  1  0
  4 38  1  0
  4 39  1  0
  6 40  1  0
  6 41  1  0
  8 42  1  0
  8 43  1  0
  8 44  1  0
  9 45  1  0
  9 46  1  0
 10 47  1  0
 10 48  1  0
 11 49  1  6
 12 50  1  0
 14 51  1  0
 15 52  1  0
 15 53  1  0
 16 54  1  6
 17 55  1  6
 18 56  1  0
 18 57  1  0
 20 58  1  0
 21 59  1  1
 22 60  1  0
 22 61  1  0
 23 62  1  0
 24 63  1  6
 25 64  1  0
 26 65  1  6
 30 66  1  0
 30 67  1  0
 30 68  1  0
 32 69  1  0
 32 70  1  0
 32 71  1  0
M  END
>  <Unnamed: 0>  (169) 
1065

>  <ID>  (169) 
TRAIN_1065

>  <Canonical_Smiles>  (169) 
CCN1C[C@]2(COC)CC[C@H](O)[C@@]34C5C[C@@H]6[C@H](C[C@](O)([C@@H](CC23)[C@@H]14)C5[C@H]6OC(=O)C)OC

>  <Inhibition>  (169) 
16.3

>  <TDC_conf_true_inhibitor>  (169) 
0

>  <TDC_conf_non_inhibitor>  (169) 
1

>  <split>  (169) 
1

$$$$
169
     RDKit          3D

 63 68  0  0  0  0  0  0  0  0999 V2000
    1.0961    4.0702    0.7872 C   0  0  0  0  0  0  0  0  0  0  0  0
    1.9575    3.1114    1.5844 C   0  0  0  0  0  0  0  0  0  0  0  0
    1.9168    1.8305    0.9447 O   0  0  0  0  0  0  0  0  0  0  0  0
    2.4862    0.8317    1.6540 C   0  0  0  0  0  0  0  0  0  0  0  0
    2.9625    0.9432    2.7753 O   0  0  0  0  0  0  0  0  0  0  0  0
    2.5226   -0.4241    0.8718 C   0  0  0  0  0  0  0  0  0  0  0  0
    3.6278   -1.1901    0.9915 C   0  0  0  0  0  0  0  0  0  0  0  0
    4.7611   -0.8774    1.7093 N   0  0  0  0  0  0  0  0  0  0  0  0
    3.7087   -2.4329    0.3773 O   0  0  0  0  0  0  0  0  0  0  0  0
    2.5845   -2.9890   -0.1925 C   0  0  0  0  0  0  0  0  0  0  0  0
    1.4365   -2.3201   -0.3605 C   0  0  0  0  0  0  0  0  0  0  0  0
    0.2862   -3.0272   -0.9713 C   0  0  0  0  0  0  0  0  0  0  0  0
   -0.7850   -2.4704   -1.1705 O   0  0  0  0  0  0  0  0  0  0  0  0
    0.4657   -4.3392   -1.3259 O   0  0  0  0  0  0  0  0  0  0  0  0
    1.7076   -4.9907   -1.1503 C   0  0  0  0  0  0  0  0  0  0  0  0
    2.7461   -4.3503   -0.6065 C   0  0  0  0  0  0  0  0  0  0  0  0
    1.7389   -6.4052   -1.6255 C   0  0  0  0  0  0  0  0  0  0  0  0
    1.3205   -0.8686    0.0586 C   0  0  0  0  0  0  0  0  0  0  0  0
    0.0373   -0.6959    0.9398 C   0  0  0  0  0  0  0  0  0  0  0  0
   -0.1770   -1.2914    1.9868 O   0  0  0  0  0  0  0  0  0  0  0  0
   -0.7840    0.2501    0.3024 N   0  0  0  0  0  0  0  0  0  0  0  0
   -0.2425    0.6071   -0.9395 C   0  0  0  0  0  0  0  0  0  0  0  0
   -0.8577    1.4032   -1.8919 C   0  0  0  0  0  0  0  0  0  0  0  0
   -0.1339    1.6344   -3.0691 C   0  0  0  0  0  0  0  0  0  0  0  0
    1.1480    1.0858   -3.2412 C   0  0  0  0  0  0  0  0  0  0  0  0
    1.8122    1.3319   -4.3785 F   0  0  0  0  0  0  0  0  0  0  0  0
    1.7377    0.2726   -2.2766 C   0  0  0  0  0  0  0  0  0  0  0  0
    1.0144    0.0272   -1.1223 C   0  0  0  0  0  0  0  0  0  0  0  0
   -2.2716    1.8671   -1.6452 C   0  0  0  0  0  0  0  0  0  0  0  0
   -2.5991    3.2215   -2.2813 C   0  0  0  0  0  0  0  0  0  0  0  0
   -2.5503    1.9382   -0.1294 C   0  0  0  0  0  0  0  0  0  0  0  0
   -2.1522    0.6476    0.6532 C   0  0  0  0  0  0  0  0  0  0  0  0
   -2.3450    0.9160    2.1618 C   0  0  0  0  0  0  0  0  0  0  0  0
   -3.8471    0.7768    2.3968 C   0  0  0  0  0  0  0  0  0  0  0  0
   -4.3554   -0.1725    1.3135 C   0  0  0  0  0  0  0  0  0  0  0  0
   -3.1526   -0.5002    0.4300 C   0  0  0  0  0  0  0  0  0  0  0  0
    1.1607    5.0820    1.1956 H   0  0  0  0  0  0  0  0  0  0  0  0
    1.3968    4.0887   -0.2661 H   0  0  0  0  0  0  0  0  0  0  0  0
    0.0502    3.7515    0.8132 H   0  0  0  0  0  0  0  0  0  0  0  0
    1.5811    3.0440    2.6123 H   0  0  0  0  0  0  0  0  0  0  0  0
    2.9936    3.4680    1.5948 H   0  0  0  0  0  0  0  0  0  0  0  0
    4.5701   -0.2212    2.4729 H   0  0  0  0  0  0  0  0  0  0  0  0
    5.2240   -1.7151    2.0524 H   0  0  0  0  0  0  0  0  0  0  0  0
    3.7082   -4.8324   -0.4660 H   0  0  0  0  0  0  0  0  0  0  0  0
    1.4434   -6.4577   -2.6770 H   0  0  0  0  0  0  0  0  0  0  0  0
    1.0455   -7.0157   -1.0403 H   0  0  0  0  0  0  0  0  0  0  0  0
    2.7374   -6.8437   -1.5356 H   0  0  0  0  0  0  0  0  0  0  0  0
   -0.5437    2.2267   -3.8810 H   0  0  0  0  0  0  0  0  0  0  0  0
    2.7171   -0.1573   -2.4520 H   0  0  0  0  0  0  0  0  0  0  0  0
   -2.9416    1.1196   -2.0885 H   0  0  0  0  0  0  0  0  0  0  0  0
   -2.5533    3.1714   -3.3736 H   0  0  0  0  0  0  0  0  0  0  0  0
   -1.9019    3.9990   -1.9508 H   0  0  0  0  0  0  0  0  0  0  0  0
   -3.6135    3.5398   -2.0172 H   0  0  0  0  0  0  0  0  0  0  0  0
   -1.9836    2.7825    0.2862 H   0  0  0  0  0  0  0  0  0  0  0  0
   -3.6085    2.1820    0.0233 H   0  0  0  0  0  0  0  0  0  0  0  0
   -1.8356    0.1747    2.7838 H   0  0  0  0  0  0  0  0  0  0  0  0
   -1.9706    1.8967    2.4731 H   0  0  0  0  0  0  0  0  0  0  0  0
   -4.3408    1.7505    2.3050 H   0  0  0  0  0  0  0  0  0  0  0  0
   -4.0608    0.3987    3.4011 H   0  0  0  0  0  0  0  0  0  0  0  0
   -4.7851   -1.0818    1.7460 H   0  0  0  0  0  0  0  0  0  0  0  0
   -5.1444    0.3125    0.7279 H   0  0  0  0  0  0  0  0  0  0  0  0
   -2.7251   -1.4556    0.7598 H   0  0  0  0  0  0  0  0  0  0  0  0
   -3.4408   -0.6293   -0.6174 H   0  0  0  0  0  0  0  0  0  0  0  0
  1  2  1  0
  2  3  1  0
  3  4  1  0
  4  5  2  0
  4  6  1  0
  6  7  2  0
  7  8  1  0
  7  9  1  0
  9 10  1  0
 10 11  2  0
 11 12  1  0
 12 13  2  0
 12 14  1  0
 14 15  1  0
 15 16  2  0
 15 17  1  0
 11 18  1  0
 18 19  1  0
 19 20  2  0
 19 21  1  0
 21 22  1  0
 22 23  2  0
 23 24  1  0
 24 25  2  0
 25 26  1  0
 25 27  1  0
 27 28  2  0
 23 29  1  0
 29 30  1  0
 29 31  1  0
 31 32  1  0
 32 33  1  0
 33 34  1  0
 34 35  1  0
 35 36  1  0
 18  6  1  0
 16 10  1  0
 28 18  1  0
 32 21  1  0
 28 22  1  0
 36 32  1  0
  1 37  1  0
  1 38  1  0
  1 39  1  0
  2 40  1  0
  2 41  1  0
  8 42  1  0
  8 43  1  0
 16 44  1  0
 17 45  1  0
 17 46  1  0
 17 47  1  0
 24 48  1  0
 27 49  1  0
 29 50  1  0
 30 51  1  0
 30 52  1  0
 30 53  1  0
 31 54  1  0
 31 55  1  0
 33 56  1  0
 33 57  1  0
 34 58  1  0
 34 59  1  0
 35 60  1  0
 35 61  1  0
 36 62  1  0
 36 63  1  0
M  END
>  <Unnamed: 0>  (170) 
1066

>  <ID>  (170) 
TRAIN_1066

>  <Canonical_Smiles>  (170) 
CCOC(=O)C1=C(N)OC2=C(C(=O)OC(=C2)C)C13C(=O)N4c5c(cc(F)cc35)C(C)CC46CCCC6

>  <Inhibition>  (170) 
42.1

>  <TDC_conf_true_inhibitor>  (170) 
1

>  <TDC_conf_non_inhibitor>  (170) 
0

>  <split>  (170) 
1

$$$$
170
     RDKit          3D

 60 64  0  0  0  0  0  0  0  0999 V2000
    2.2340   -3.0347    1.0392 C   0  0  0  0  0  0  0  0  0  0  0  0
    2.7433   -1.7767    0.5465 N   0  0  0  0  0  0  0  0  0  0  0  0
    2.2084   -0.9566   -0.4261 C   0  0  0  0  0  0  0  0  0  0  0  0
    0.9398   -1.2166   -1.1815 C   0  0  0  0  0  0  0  0  0  0  0  0
   -0.0387   -0.1724   -0.8854 N   0  0  0  0  0  0  0  0  0  0  0  0
   -0.4618    0.1271    0.4588 C   0  0  0  0  0  0  0  0  0  0  0  0
   -1.3354    1.3623    0.3237 C   0  0  0  0  0  0  0  0  0  0  0  0
   -0.7082    2.1057   -0.8768 C   0  0  0  0  0  0  0  0  0  0  0  0
   -1.7405    2.9098   -1.6745 C   0  0  0  0  0  0  0  0  0  0  0  0
   -2.1484    4.1713   -0.9270 C   0  0  0  0  0  0  0  0  0  0  0  0
   -1.0072    4.9742   -0.6394 O   0  0  0  0  0  0  0  0  0  0  0  0
   -0.0614    4.3123    0.1969 C   0  0  0  0  0  0  0  0  0  0  0  0
    0.4485    3.0316   -0.4535 C   0  0  0  0  0  0  0  0  0  0  0  0
   -0.1350    0.9542   -1.7023 C   0  0  0  0  0  0  0  0  0  0  0  0
    0.1929    1.0157   -2.8761 O   0  0  0  0  0  0  0  0  0  0  0  0
   -1.0493   -1.0371    1.1776 C   0  0  0  0  0  0  0  0  0  0  0  0
   -0.4813   -1.5053    2.2790 N   0  0  0  0  0  0  0  0  0  0  0  0
   -1.2193   -2.5604    2.7012 N   0  0  0  0  0  0  0  0  0  0  0  0
   -2.2334   -2.7691    1.8887 N   0  0  0  0  0  0  0  0  0  0  0  0
   -2.1423   -1.8420    0.9011 N   0  0  0  0  0  0  0  0  0  0  0  0
   -3.2040   -1.8645   -0.1189 C   0  0  0  0  0  0  0  0  0  0  0  0
   -2.7894   -1.3537   -1.5072 C   0  0  0  0  0  0  0  0  0  0  0  0
   -4.4103   -1.0524    0.3914 C   0  0  0  0  0  0  0  0  0  0  0  0
   -3.6912   -3.3244   -0.3558 C   0  0  0  0  0  0  0  0  0  0  0  0
    2.9477    0.1307   -0.5696 N   0  0  0  0  0  0  0  0  0  0  0  0
    3.9946    0.0002    0.3019 C   0  0  0  0  0  0  0  0  0  0  0  0
    5.0724    0.8661    0.5375 C   0  0  0  0  0  0  0  0  0  0  0  0
    6.0262    0.5085    1.4977 C   0  0  0  0  0  0  0  0  0  0  0  0
    5.9070   -0.6864    2.2095 C   0  0  0  0  0  0  0  0  0  0  0  0
    4.8368   -1.5614    1.9871 C   0  0  0  0  0  0  0  0  0  0  0  0
    3.8957   -1.1847    1.0202 C   0  0  0  0  0  0  0  0  0  0  0  0
    2.1625   -2.9780    2.1291 H   0  0  0  0  0  0  0  0  0  0  0  0
    2.9322   -3.8231    0.7454 H   0  0  0  0  0  0  0  0  0  0  0  0
    1.2483   -3.2507    0.6310 H   0  0  0  0  0  0  0  0  0  0  0  0
    0.4841   -2.1801   -0.9493 H   0  0  0  0  0  0  0  0  0  0  0  0
    1.1602   -1.2149   -2.2547 H   0  0  0  0  0  0  0  0  0  0  0  0
    0.4354    0.4357    1.0136 H   0  0  0  0  0  0  0  0  0  0  0  0
   -1.3453    1.9502    1.2474 H   0  0  0  0  0  0  0  0  0  0  0  0
   -2.3746    1.1065    0.1114 H   0  0  0  0  0  0  0  0  0  0  0  0
   -1.3020    3.2030   -2.6375 H   0  0  0  0  0  0  0  0  0  0  0  0
   -2.6237    2.3032   -1.9064 H   0  0  0  0  0  0  0  0  0  0  0  0
   -2.6768    3.9380    0.0045 H   0  0  0  0  0  0  0  0  0  0  0  0
   -2.8255    4.7668   -1.5477 H   0  0  0  0  0  0  0  0  0  0  0  0
    0.7744    5.0002    0.3614 H   0  0  0  0  0  0  0  0  0  0  0  0
   -0.5170    4.1178    1.1740 H   0  0  0  0  0  0  0  0  0  0  0  0
    1.0228    3.3054   -1.3490 H   0  0  0  0  0  0  0  0  0  0  0  0
    1.1509    2.5269    0.2192 H   0  0  0  0  0  0  0  0  0  0  0  0
   -1.8912   -1.8631   -1.8692 H   0  0  0  0  0  0  0  0  0  0  0  0
   -2.6228   -0.2778   -1.5226 H   0  0  0  0  0  0  0  0  0  0  0  0
   -3.5795   -1.5361   -2.2463 H   0  0  0  0  0  0  0  0  0  0  0  0
   -4.7965   -1.4609    1.3329 H   0  0  0  0  0  0  0  0  0  0  0  0
   -4.1512   -0.0073    0.5807 H   0  0  0  0  0  0  0  0  0  0  0  0
   -5.2316   -1.0633   -0.3348 H   0  0  0  0  0  0  0  0  0  0  0  0
   -2.8609   -3.9707   -0.6645 H   0  0  0  0  0  0  0  0  0  0  0  0
   -4.4574   -3.3670   -1.1391 H   0  0  0  0  0  0  0  0  0  0  0  0
   -4.1401   -3.7623    0.5436 H   0  0  0  0  0  0  0  0  0  0  0  0
    5.1574    1.7910   -0.0222 H   0  0  0  0  0  0  0  0  0  0  0  0
    6.8675    1.1704    1.6885 H   0  0  0  0  0  0  0  0  0  0  0  0
    6.6601   -0.9434    2.9517 H   0  0  0  0  0  0  0  0  0  0  0  0
    4.7500   -2.4880    2.5439 H   0  0  0  0  0  0  0  0  0  0  0  0
  1  2  1  0
  2  3  1  0
  3  4  1  0
  4  5  1  0
  5  6  1  0
  6  7  1  0
  7  8  1  0
  8  9  1  0
  9 10  1  0
 10 11  1  0
 11 12  1  0
 12 13  1  0
  8 14  1  0
 14 15  2  0
  6 16  1  0
 16 17  2  0
 17 18  1  0
 18 19  2  0
 19 20  1  0
 20 21  1  0
 21 22  1  0
 21 23  1  0
 21 24  1  0
  3 25  2  0
 25 26  1  0
 26 27  2  0
 27 28  1  0
 28 29  2  0
 29 30  1  0
 30 31  2  0
 31  2  1  0
 14  5  1  0
 13  8  1  0
 20 16  1  0
 31 26  1  0
  1 32  1  0
  1 33  1  0
  1 34  1  0
  4 35  1  0
  4 36  1  0
  6 37  1  0
  7 38  1  0
  7 39  1  0
  9 40  1  0
  9 41  1  0
 10 42  1  0
 10 43  1  0
 12 44  1  0
 12 45  1  0
 13 46  1  0
 13 47  1  0
 22 48  1  0
 22 49  1  0
 22 50  1  0
 23 51  1  0
 23 52  1  0
 23 53  1  0
 24 54  1  0
 24 55  1  0
 24 56  1  0
 27 57  1  0
 28 58  1  0
 29 59  1  0
 30 60  1  0
M  END
>  <Unnamed: 0>  (171) 
1072

>  <ID>  (171) 
TRAIN_1072

>  <Canonical_Smiles>  (171) 
Cn1c(CN2C(CC3(CCOCC3)C2=O)c4nnnn4C(C)(C)C)nc5ccccc15

>  <Inhibition>  (171) 
24.5

>  <TDC_conf_true_inhibitor>  (171) 
1

>  <TDC_conf_non_inhibitor>  (171) 
0

>  <split>  (171) 
1

$$$$
171
     RDKit          3D

 35 38  0  0  0  0  0  0  0  0999 V2000
   -7.2884   -2.3459    0.1591 F   0  0  0  0  0  0  0  0  0  0  0  0
   -6.0781   -1.7700    0.1294 C   0  0  0  0  0  0  0  0  0  0  0  0
   -4.9941   -2.5083   -0.3220 C   0  0  0  0  0  0  0  0  0  0  0  0
   -3.7227   -1.9234   -0.3640 C   0  0  0  0  0  0  0  0  0  0  0  0
   -3.5130   -0.5947    0.0462 C   0  0  0  0  0  0  0  0  0  0  0  0
   -4.6322    0.1313    0.4964 C   0  0  0  0  0  0  0  0  0  0  0  0
   -5.9028   -0.4542    0.5389 C   0  0  0  0  0  0  0  0  0  0  0  0
   -7.2386    0.4732    1.1076 Cl  0  0  0  0  0  0  0  0  0  0  0  0
   -2.2041    0.0247   -0.0111 N   0  0  0  0  0  0  0  0  0  0  0  0
   -2.0819    1.4091   -0.2281 C   0  0  0  0  0  0  0  0  0  0  0  0
   -0.8947    2.0280   -0.2944 C   0  0  0  0  0  0  0  0  0  0  0  0
    0.2616    1.2941   -0.1484 N   0  0  0  0  0  0  0  0  0  0  0  0
    1.5737    1.6831   -0.1866 C   0  0  0  0  0  0  0  0  0  0  0  0
    2.3051    0.5288    0.0119 C   0  0  0  0  0  0  0  0  0  0  0  0
    1.4583   -0.5486    0.1696 N   0  0  0  0  0  0  0  0  0  0  0  0
    0.2378   -0.0577    0.0686 C   0  0  0  0  0  0  0  0  0  0  0  0
   -1.0208   -0.7859    0.1736 C   0  0  0  0  0  0  0  0  0  0  0  0
   -1.0517   -1.9879    0.4364 O   0  0  0  0  0  0  0  0  0  0  0  0
    3.7560    0.4098    0.0579 C   0  0  0  0  0  0  0  0  0  0  0  0
    4.3345   -0.8476    0.2877 C   0  0  0  0  0  0  0  0  0  0  0  0
    5.7225   -1.0014    0.3387 C   0  0  0  0  0  0  0  0  0  0  0  0
    6.5519    0.1025    0.1600 C   0  0  0  0  0  0  0  0  0  0  0  0
    5.9943    1.3583   -0.0694 C   0  0  0  0  0  0  0  0  0  0  0  0
    4.6047    1.5119   -0.1203 C   0  0  0  0  0  0  0  0  0  0  0  0
   -5.1380   -3.5353   -0.6448 H   0  0  0  0  0  0  0  0  0  0  0  0
   -2.9108   -2.5316   -0.7577 H   0  0  0  0  0  0  0  0  0  0  0  0
   -4.5303    1.1474    0.8660 H   0  0  0  0  0  0  0  0  0  0  0  0
   -2.9893    1.9828   -0.3875 H   0  0  0  0  0  0  0  0  0  0  0  0
   -0.7945    3.0913   -0.4759 H   0  0  0  0  0  0  0  0  0  0  0  0
    1.8575    2.7126   -0.3465 H   0  0  0  0  0  0  0  0  0  0  0  0
    3.7003   -1.7216    0.4300 H   0  0  0  0  0  0  0  0  0  0  0  0
    6.1506   -1.9841    0.5182 H   0  0  0  0  0  0  0  0  0  0  0  0
    7.6315   -0.0164    0.1996 H   0  0  0  0  0  0  0  0  0  0  0  0
    6.6408    2.2208   -0.2092 H   0  0  0  0  0  0  0  0  0  0  0  0
    4.2051    2.5051   -0.3015 H   0  0  0  0  0  0  0  0  0  0  0  0
  1  2  1  0
  2  3  2  0
  3  4  1  0
  4  5  2  0
  5  6  1  0
  6  7  2  0
  7  8  1  0
  5  9  1  0
  9 10  1  0
 10 11  2  0
 11 12  1  0
 12 13  1  0
 13 14  2  0
 14 15  1  0
 15 16  2  0
 16 17  1  0
 17 18  2  0
 14 19  1  0
 19 20  2  0
 20 21  1  0
 21 22  2  0
 22 23  1  0
 23 24  2  0
  7  2  1  0
 17  9  1  0
 16 12  1  0
 24 19  1  0
  3 25  1  0
  4 26  1  0
  6 27  1  0
 10 28  1  0
 11 29  1  0
 13 30  1  0
 20 31  1  0
 21 32  1  0
 22 33  1  0
 23 34  1  0
 24 35  1  0
M  END
>  <Unnamed: 0>  (172) 
1074

>  <ID>  (172) 
TRAIN_1074

>  <Canonical_Smiles>  (172) 
Fc1ccc(cc1Cl)N2C=Cn3cc(nc3C2=O)c4ccccc4

>  <Inhibition>  (172) 
14.4

>  <TDC_conf_true_inhibitor>  (172) 
0

>  <TDC_conf_non_inhibitor>  (172) 
1

>  <split>  (172) 
1

$$$$
172
     RDKit          3D

 60 63  0  0  0  0  0  0  0  0999 V2000
    8.0572    1.3826   -0.0632 C   0  0  0  0  0  0  0  0  0  0  0  0
    7.3389    1.1645    1.2722 C   0  0  0  0  0  0  0  0  0  0  0  0
    7.0270   -0.3171    1.5040 C   0  0  0  0  0  0  0  0  0  0  0  0
    5.9542   -0.8695    0.5626 C   0  0  0  0  0  0  0  0  0  0  0  0
    4.8470    0.1423    0.2250 C   0  0  0  0  0  0  0  0  0  0  0  0
    4.7620    1.2546    1.2721 C   0  0  0  0  0  0  0  0  0  0  0  0
    6.0737    2.0363    1.3786 C   0  0  0  0  0  0  0  0  0  0  0  0
    3.5622   -0.5290    0.0785 N   0  0  0  0  0  0  0  0  0  0  0  0
    2.5624   -0.0181   -0.7238 C   0  0  0  0  0  0  0  0  0  0  0  0
    2.7011    0.9672   -1.4393 O   0  0  0  0  0  0  0  0  0  0  0  0
    1.2664   -0.7493   -0.7112 C   0  0  0  0  0  0  0  0  0  0  0  0
    0.7903   -1.3992    0.4333 C   0  0  0  0  0  0  0  0  0  0  0  0
   -0.4389   -2.0643    0.3994 C   0  0  0  0  0  0  0  0  0  0  0  0
   -1.2057   -2.0885   -0.7751 C   0  0  0  0  0  0  0  0  0  0  0  0
   -2.5519   -2.7765   -0.7972 C   0  0  0  0  0  0  0  0  0  0  0  0
   -3.6105   -1.8686   -0.4237 N   0  0  0  0  0  0  0  0  0  0  0  0
   -4.0139   -1.6425    0.8528 C   0  0  0  0  0  0  0  0  0  0  0  0
   -3.5998   -2.1638    1.8738 O   0  0  0  0  0  0  0  0  0  0  0  0
   -5.0109   -0.6913    0.8366 N   0  0  0  0  0  0  0  0  0  0  0  0
   -5.2732   -0.1879   -0.4945 C   0  0  0  0  0  0  0  0  0  0  0  0
   -4.8554    1.2814   -0.6388 C   0  0  0  0  0  0  0  0  0  0  0  0
   -5.7358    2.2337    0.1574 C   0  0  0  0  0  0  0  0  0  0  0  0
   -7.4486    2.0954   -0.3059 S   0  0  0  0  0  6  0  0  0  0  0  0
   -8.2371    2.7606    0.7112 O   0  0  0  0  0  0  0  0  0  0  0  0
   -7.5676    2.4549   -1.7039 O   0  0  0  0  0  0  0  0  0  0  0  0
   -7.7414    0.3462   -0.1600 C   0  0  0  0  0  0  0  0  0  0  0  0
   -6.7143   -0.4654   -0.9358 C   0  0  0  0  0  0  0  0  0  0  0  0
   -4.2983   -1.0754   -1.2962 C   0  0  0  0  0  0  0  0  0  0  0  0
   -4.1698   -1.0508   -2.5124 O   0  0  0  0  0  0  0  0  0  0  0  0
   -0.7345   -1.4135   -1.9100 C   0  0  0  0  0  0  0  0  0  0  0  0
    0.4922   -0.7465   -1.8771 C   0  0  0  0  0  0  0  0  0  0  0  0
    8.3611    2.4297   -0.1691 H   0  0  0  0  0  0  0  0  0  0  0  0
    8.9621    0.7683   -0.1208 H   0  0  0  0  0  0  0  0  0  0  0  0
    7.4232    1.1311   -0.9185 H   0  0  0  0  0  0  0  0  0  0  0  0
    8.0366    1.4882    2.0560 H   0  0  0  0  0  0  0  0  0  0  0  0
    7.9377   -0.9218    1.4156 H   0  0  0  0  0  0  0  0  0  0  0  0
    6.6821   -0.4418    2.5391 H   0  0  0  0  0  0  0  0  0  0  0  0
    6.4206   -1.2008   -0.3741 H   0  0  0  0  0  0  0  0  0  0  0  0
    5.5380   -1.7772    1.0180 H   0  0  0  0  0  0  0  0  0  0  0  0
    5.0839    0.6047   -0.7418 H   0  0  0  0  0  0  0  0  0  0  0  0
    3.9478    1.9510    1.0368 H   0  0  0  0  0  0  0  0  0  0  0  0
    4.5120    0.8212    2.2497 H   0  0  0  0  0  0  0  0  0  0  0  0
    6.0780    2.5599    2.3431 H   0  0  0  0  0  0  0  0  0  0  0  0
    6.0888    2.8234    0.6144 H   0  0  0  0  0  0  0  0  0  0  0  0
    3.3843   -1.3521    0.6360 H   0  0  0  0  0  0  0  0  0  0  0  0
    1.3420   -1.3691    1.3683 H   0  0  0  0  0  0  0  0  0  0  0  0
   -0.8059   -2.5497    1.3034 H   0  0  0  0  0  0  0  0  0  0  0  0
   -2.5447   -3.6277   -0.1059 H   0  0  0  0  0  0  0  0  0  0  0  0
   -2.7494   -3.1717   -1.8007 H   0  0  0  0  0  0  0  0  0  0  0  0
   -5.3999   -0.3706    1.7158 H   0  0  0  0  0  0  0  0  0  0  0  0
   -3.8137    1.4138   -0.3182 H   0  0  0  0  0  0  0  0  0  0  0  0
   -4.8852    1.5640   -1.6993 H   0  0  0  0  0  0  0  0  0  0  0  0
   -5.6691    2.0364    1.2318 H   0  0  0  0  0  0  0  0  0  0  0  0
   -5.4382    3.2722   -0.0182 H   0  0  0  0  0  0  0  0  0  0  0  0
   -7.7259    0.0978    0.9058 H   0  0  0  0  0  0  0  0  0  0  0  0
   -8.7499    0.1565   -0.5403 H   0  0  0  0  0  0  0  0  0  0  0  0
   -6.9476   -1.5319   -0.8201 H   0  0  0  0  0  0  0  0  0  0  0  0
   -6.8149   -0.2466   -2.0069 H   0  0  0  0  0  0  0  0  0  0  0  0
   -1.3248   -1.3926   -2.8255 H   0  0  0  0  0  0  0  0  0  0  0  0
    0.8439   -0.2216   -2.7637 H   0  0  0  0  0  0  0  0  0  0  0  0
  1  2  1  0
  2  3  1  0
  3  4  1  0
  4  5  1  0
  5  6  1  0
  6  7  1  0
  5  8  1  0
  8  9  1  0
  9 10  2  0
  9 11  1  0
 11 12  2  0
 12 13  1  0
 13 14  2  0
 14 15  1  0
 15 16  1  0
 16 17  1  0
 17 18  2  0
 17 19  1  0
 19 20  1  0
 20 21  1  0
 21 22  1  0
 22 23  1  0
 23 24  2  0
 23 25  2  0
 23 26  1  0
 26 27  1  0
 20 28  1  0
 28 29  2  0
 14 30  1  0
 30 31  2  0
  7  2  1  0
 31 11  1  0
 28 16  1  0
 27 20  1  0
  1 32  1  0
  1 33  1  0
  1 34  1  0
  2 35  1  0
  3 36  1  0
  3 37  1  0
  4 38  1  0
  4 39  1  0
  5 40  1  0
  6 41  1  0
  6 42  1  0
  7 43  1  0
  7 44  1  0
  8 45  1  0
 12 46  1  0
 13 47  1  0
 15 48  1  0
 15 49  1  0
 19 50  1  0
 21 51  1  0
 21 52  1  0
 22 53  1  0
 22 54  1  0
 26 55  1  0
 26 56  1  0
 27 57  1  0
 27 58  1  0
 30 59  1  0
 31 60  1  0
M  END
>  <Unnamed: 0>  (173) 
1076

>  <ID>  (173) 
TRAIN_1076

>  <Canonical_Smiles>  (173) 
CC1CCC(CC1)NC(=O)c2ccc(CN3C(=O)NC4(CCS(=O)(=O)CC4)C3=O)cc2

>  <Inhibition>  (173) 
7.13

>  <TDC_conf_true_inhibitor>  (173) 
0

>  <TDC_conf_non_inhibitor>  (173) 
1

>  <split>  (173) 
1

$$$$
173
     RDKit          3D

 40 44  0  0  0  0  0  0  0  0999 V2000
    3.5555    1.5359   -3.1970 O   0  0  0  0  0  0  0  0  0  0  0  0
    2.7820    0.8912   -2.2787 C   0  0  0  0  0  0  0  0  0  0  0  0
    2.8900    1.2853   -0.9518 C   0  0  0  0  0  0  0  0  0  0  0  0
    2.1184    0.6534    0.0244 C   0  0  0  0  0  0  0  0  0  0  0  0
    1.2223   -0.3720   -0.3246 C   0  0  0  0  0  0  0  0  0  0  0  0
    1.1367   -0.7601   -1.6752 C   0  0  0  0  0  0  0  0  0  0  0  0
    1.9140   -0.1289   -2.6497 C   0  0  0  0  0  0  0  0  0  0  0  0
    0.3716   -1.0342    0.7554 C   0  0  0  0  0  0  0  0  0  0  0  0
   -1.1246   -0.9930    0.4528 C   0  0  0  0  0  0  0  0  0  0  0  0
   -1.8063   -2.1863    0.1523 C   0  0  0  0  0  0  0  0  0  0  0  0
   -1.1319   -3.4219    0.1719 N   0  0  0  0  0  0  0  0  0  0  0  0
    0.1083   -3.5305    0.6785 C   0  0  0  0  0  0  0  0  0  0  0  0
    0.8321   -4.5706    1.0149 N   0  0  0  0  0  0  0  0  0  0  0  0
    1.9984   -4.0612    1.5522 N   0  0  0  0  0  0  0  0  0  0  0  0
    1.9909   -2.7325    1.5479 N   0  0  0  0  0  0  0  0  0  0  0  0
    0.8262   -2.4053    0.9653 N   0  0  0  0  0  0  0  0  0  0  0  0
   -3.1451   -2.0931   -0.1928 C   0  0  0  0  0  0  0  0  0  0  0  0
   -3.8601   -3.2097   -0.5078 O   0  0  0  0  0  0  0  0  0  0  0  0
   -3.8257   -0.9400   -0.2305 N   0  0  0  0  0  0  0  0  0  0  0  0
   -3.1738    0.2142    0.0904 N   0  0  0  0  0  0  0  0  0  0  0  0
   -1.8583    0.1974    0.4288 C   0  0  0  0  0  0  0  0  0  0  0  0
   -1.3071    1.5138    0.7604 C   0  0  0  0  0  0  0  0  0  0  0  0
   -1.0277    2.4465   -0.2544 C   0  0  0  0  0  0  0  0  0  0  0  0
   -0.4845    3.6957    0.0539 C   0  0  0  0  0  0  0  0  0  0  0  0
   -0.2303    4.0232    1.3791 C   0  0  0  0  0  0  0  0  0  0  0  0
    0.2909    5.2203    1.6760 F   0  0  0  0  0  0  0  0  0  0  0  0
   -0.5128    3.1275    2.4030 C   0  0  0  0  0  0  0  0  0  0  0  0
   -1.0533    1.8766    2.0956 C   0  0  0  0  0  0  0  0  0  0  0  0
    3.4225    1.1204   -4.0647 H   0  0  0  0  0  0  0  0  0  0  0  0
    3.5772    2.0808   -0.6762 H   0  0  0  0  0  0  0  0  0  0  0  0
    2.2235    0.9757    1.0588 H   0  0  0  0  0  0  0  0  0  0  0  0
    0.4668   -1.5605   -1.9853 H   0  0  0  0  0  0  0  0  0  0  0  0
    1.8297   -0.4463   -3.6846 H   0  0  0  0  0  0  0  0  0  0  0  0
    0.5321   -0.5455    1.7255 H   0  0  0  0  0  0  0  0  0  0  0  0
   -1.7191   -4.2474    0.0656 H   0  0  0  0  0  0  0  0  0  0  0  0
   -4.7390   -2.8296   -0.6923 H   0  0  0  0  0  0  0  0  0  0  0  0
   -1.2250    2.1977   -1.2962 H   0  0  0  0  0  0  0  0  0  0  0  0
   -0.2596    4.4113   -0.7308 H   0  0  0  0  0  0  0  0  0  0  0  0
   -0.3173    3.4116    3.4325 H   0  0  0  0  0  0  0  0  0  0  0  0
   -1.2874    1.1903    2.9076 H   0  0  0  0  0  0  0  0  0  0  0  0
  1  2  1  0
  2  3  2  0
  3  4  1  0
  4  5  2  0
  5  6  1  0
  6  7  2  0
  5  8  1  0
  8  9  1  0
  9 10  2  0
 10 11  1  0
 11 12  1  0
 12 13  2  0
 13 14  1  0
 14 15  2  0
 15 16  1  0
 10 17  1  0
 17 18  1  0
 17 19  2  0
 19 20  1  0
 20 21  2  0
 21 22  1  0
 22 23  2  0
 23 24  1  0
 24 25  2  0
 25 26  1  0
 25 27  1  0
 27 28  2  0
  7  2  1  0
 16  8  1  0
 21  9  1  0
 16 12  1  0
 28 22  1  0
  1 29  1  0
  3 30  1  0
  4 31  1  0
  6 32  1  0
  7 33  1  0
  8 34  1  0
 11 35  1  0
 18 36  1  0
 23 37  1  0
 24 38  1  0
 27 39  1  0
 28 40  1  0
M  END
>  <Unnamed: 0>  (174) 
1080

>  <ID>  (174) 
TRAIN_1080

>  <Canonical_Smiles>  (174) 
Oc1ccc(cc1)C2c3c(Nc4nnnn24)c(O)nnc3c5ccc(F)cc5

>  <Inhibition>  (174) 
20.3

>  <TDC_conf_true_inhibitor>  (174) 
0

>  <TDC_conf_non_inhibitor>  (174) 
1

>  <split>  (174) 
1

$$$$
174
     RDKit          3D

 47 51  0  0  0  0  0  0  0  0999 V2000
   -5.0785    3.2214    2.0500 C   0  0  0  0  0  0  0  0  0  0  0  0
   -4.2540    2.4078    1.1134 C   0  0  0  0  0  0  0  0  0  0  0  0
   -4.2622    2.4173   -0.2647 C   0  0  0  0  0  0  0  0  0  0  0  0
   -3.3222    1.5002   -0.8156 C   0  0  0  0  0  0  0  0  0  0  0  0
   -2.6164    0.8126    0.1559 C   0  0  0  0  0  0  0  0  0  0  0  0
   -3.1093    1.2978    1.7299 S   0  0  0  0  0  0  0  0  0  0  0  0
   -1.5461   -0.2601   -0.0084 C   0  0  0  0  0  0  0  0  0  0  0  0
   -1.7547   -1.1134   -1.1918 N   0  0  0  0  0  0  0  0  0  0  0  0
   -1.3855   -2.4722   -1.0359 C   0  0  0  0  0  0  0  0  0  0  0  0
   -2.1127   -3.4076   -1.8012 C   0  0  0  0  0  0  0  0  0  0  0  0
   -1.8593   -4.7767   -1.7225 C   0  0  0  0  0  0  0  0  0  0  0  0
   -0.8565   -5.2413   -0.8858 C   0  0  0  0  0  0  0  0  0  0  0  0
   -0.0845   -4.3311   -0.1638 C   0  0  0  0  0  0  0  0  0  0  0  0
   -0.2913   -2.9370   -0.2626 C   0  0  0  0  0  0  0  0  0  0  0  0
    0.6014   -2.1168    0.4929 N   0  0  0  0  0  0  0  0  0  0  0  0
    0.8631   -0.7679    0.2637 C   0  0  0  0  0  0  0  0  0  0  0  0
   -0.0935    0.1472   -0.0148 C   0  0  0  0  0  0  0  0  0  0  0  0
    0.3097    1.5530   -0.3154 C   0  0  0  0  0  0  0  0  0  0  0  0
   -0.4512    2.3621   -0.8394 O   0  0  0  0  0  0  0  0  0  0  0  0
    1.7038    1.9870    0.0648 C   0  0  0  0  0  0  0  0  0  0  0  0
    2.6914    0.9098   -0.3528 C   0  0  0  0  0  0  0  0  0  0  0  0
    2.3379   -0.4054    0.3472 C   0  0  0  0  0  0  0  0  0  0  0  0
    4.1183    1.3135   -0.0590 C   0  0  0  0  0  0  0  0  0  0  0  0
    4.6738    1.7527    1.1290 C   0  0  0  0  0  0  0  0  0  0  0  0
    6.0649    2.0358    1.0086 C   0  0  0  0  0  0  0  0  0  0  0  0
    6.5297    1.8021   -0.2652 C   0  0  0  0  0  0  0  0  0  0  0  0
    5.2956    1.2437   -1.3059 S   0  0  0  0  0  0  0  0  0  0  0  0
   -4.4429    3.8576    2.6747 H   0  0  0  0  0  0  0  0  0  0  0  0
   -5.6768    2.5765    2.7021 H   0  0  0  0  0  0  0  0  0  0  0  0
   -5.7668    3.8723    1.5009 H   0  0  0  0  0  0  0  0  0  0  0  0
   -4.9023    3.0607   -0.8562 H   0  0  0  0  0  0  0  0  0  0  0  0
   -3.1476    1.3697   -1.8772 H   0  0  0  0  0  0  0  0  0  0  0  0
   -1.7042   -0.8917    0.8822 H   0  0  0  0  0  0  0  0  0  0  0  0
   -2.7204   -1.0496   -1.4993 H   0  0  0  0  0  0  0  0  0  0  0  0
   -2.9080   -3.0679   -2.4611 H   0  0  0  0  0  0  0  0  0  0  0  0
   -2.4513   -5.4739   -2.3091 H   0  0  0  0  0  0  0  0  0  0  0  0
   -0.6617   -6.3072   -0.8048 H   0  0  0  0  0  0  0  0  0  0  0  0
    0.7074   -4.7230    0.4702 H   0  0  0  0  0  0  0  0  0  0  0  0
    1.4369   -2.6433    0.7405 H   0  0  0  0  0  0  0  0  0  0  0  0
    1.9310    2.9281   -0.4507 H   0  0  0  0  0  0  0  0  0  0  0  0
    1.7216    2.1860    1.1428 H   0  0  0  0  0  0  0  0  0  0  0  0
    2.5771    0.7514   -1.4358 H   0  0  0  0  0  0  0  0  0  0  0  0
    2.6160   -0.3713    1.4094 H   0  0  0  0  0  0  0  0  0  0  0  0
    2.9396   -1.2062   -0.1047 H   0  0  0  0  0  0  0  0  0  0  0  0
    4.1116    1.8702    2.0479 H   0  0  0  0  0  0  0  0  0  0  0  0
    6.6928    2.3942    1.8152 H   0  0  0  0  0  0  0  0  0  0  0  0
    7.5365    1.9326   -0.6377 H   0  0  0  0  0  0  0  0  0  0  0  0
  1  2  1  0
  2  3  2  0
  3  4  1  0
  4  5  2  0
  5  6  1  0
  5  7  1  0
  7  8  1  0
  8  9  1  0
  9 10  2  0
 10 11  1  0
 11 12  2  0
 12 13  1  0
 13 14  2  0
 14 15  1  0
 15 16  1  0
 16 17  2  0
 17 18  1  0
 18 19  2  0
 18 20  1  0
 20 21  1  0
 21 22  1  0
 21 23  1  0
 23 24  2  0
 24 25  1  0
 25 26  2  0
 26 27  1  0
  6  2  1  0
 17  7  1  0
 14  9  1  0
 22 16  1  0
 27 23  1  0
  1 28  1  0
  1 29  1  0
  1 30  1  0
  3 31  1  0
  4 32  1  0
  7 33  1  0
  8 34  1  0
 10 35  1  0
 11 36  1  0
 12 37  1  0
 13 38  1  0
 15 39  1  0
 20 40  1  0
 20 41  1  0
 21 42  1  0
 22 43  1  0
 22 44  1  0
 24 45  1  0
 25 46  1  0
 26 47  1  0
M  END
>  <Unnamed: 0>  (175) 
1081

>  <ID>  (175) 
TRAIN_1081

>  <Canonical_Smiles>  (175) 
Cc1ccc(s1)C2Nc3ccccc3NC4=C2C(=O)CC(C4)c5cccs5

>  <Inhibition>  (175) 
74.2

>  <TDC_conf_true_inhibitor>  (175) 
1

>  <TDC_conf_non_inhibitor>  (175) 
0

>  <split>  (175) 
1

$$$$
175
     RDKit          3D

 52 56  0  0  0  0  0  0  0  0999 V2000
    5.3882   -1.2077    4.8552 C   0  0  0  0  0  0  0  0  0  0  0  0
    5.7534   -1.3127    3.0890 S   0  0  0  0  0  0  0  0  0  0  0  0
    4.1639   -1.0491    2.4145 C   0  0  0  0  0  0  0  0  0  0  0  0
    3.1753   -0.5365    3.1080 N   0  0  0  0  0  0  0  0  0  0  0  0
    2.0229   -0.4220    2.3581 N   0  0  0  0  0  0  0  0  0  0  0  0
    2.1520   -0.8819    1.1225 C   0  0  0  0  0  0  0  0  0  0  0  0
    3.7735   -1.4227    0.7949 S   0  0  0  0  0  0  0  0  0  0  0  0
    1.1546   -0.8510    0.1536 N   0  0  0  0  0  0  0  0  0  0  0  0
    0.7200   -2.0652   -0.4656 C   0  0  0  0  0  0  0  0  0  0  0  0
   -0.4518   -2.0934   -1.1581 C   0  0  0  0  0  0  0  0  0  0  0  0
   -0.9040   -3.3083   -1.7663 C   0  0  0  0  0  0  0  0  0  0  0  0
   -1.2449   -4.3011   -2.2604 N   0  0  0  0  0  0  0  0  0  0  0  0
   -1.3400   -0.8643   -1.3131 C   0  0  0  0  0  0  0  0  0  0  0  0
   -1.5744   -0.6838   -2.8525 C   0  0  0  0  0  0  0  0  0  0  0  0
   -0.7309   -0.4213   -3.6972 O   0  0  0  0  0  0  0  0  0  0  0  0
   -2.9247   -0.9282   -3.0986 N   0  0  0  0  0  0  0  0  0  0  0  0
   -3.6232   -1.1692   -1.9227 C   0  0  0  0  0  0  0  0  0  0  0  0
   -4.9755   -1.4074   -1.7919 C   0  0  0  0  0  0  0  0  0  0  0  0
   -5.4652   -1.6178   -0.4993 C   0  0  0  0  0  0  0  0  0  0  0  0
   -4.5988   -1.5804    0.6052 C   0  0  0  0  0  0  0  0  0  0  0  0
   -5.0976   -1.7883    1.8329 F   0  0  0  0  0  0  0  0  0  0  0  0
   -3.2334   -1.3400    0.4606 C   0  0  0  0  0  0  0  0  0  0  0  0
   -2.7546   -1.1332   -0.8237 C   0  0  0  0  0  0  0  0  0  0  0  0
   -0.7243    0.3961   -0.7474 C   0  0  0  0  0  0  0  0  0  0  0  0
    0.4436    0.3668   -0.0670 C   0  0  0  0  0  0  0  0  0  0  0  0
    1.0857    1.6615    0.4383 C   0  0  0  0  0  0  0  0  0  0  0  0
    0.6434    2.9399   -0.2979 C   0  0  0  0  0  0  0  0  0  0  0  0
    1.1376    4.1723    0.4814 C   0  0  0  0  0  0  0  0  0  0  0  0
    1.2484    2.9982   -1.7164 C   0  0  0  0  0  0  0  0  0  0  0  0
   -0.8828    2.9567   -0.3543 C   0  0  0  0  0  0  0  0  0  0  0  0
   -1.4365    1.6955   -0.9722 C   0  0  0  0  0  0  0  0  0  0  0  0
   -2.4858    1.7380   -1.6104 O   0  0  0  0  0  0  0  0  0  0  0  0
    1.4714   -3.2336   -0.3375 N   0  0  0  0  0  0  0  0  0  0  0  0
    4.6819   -1.9933    5.1402 H   0  0  0  0  0  0  0  0  0  0  0  0
    6.3118   -1.3526    5.4211 H   0  0  0  0  0  0  0  0  0  0  0  0
    4.9764   -0.2287    5.1175 H   0  0  0  0  0  0  0  0  0  0  0  0
   -3.3340   -0.8546   -4.0197 H   0  0  0  0  0  0  0  0  0  0  0  0
   -5.6377   -1.4338   -2.6495 H   0  0  0  0  0  0  0  0  0  0  0  0
   -6.5216   -1.8115   -0.3351 H   0  0  0  0  0  0  0  0  0  0  0  0
   -2.5883   -1.3208    1.3329 H   0  0  0  0  0  0  0  0  0  0  0  0
    0.8513    1.7558    1.5065 H   0  0  0  0  0  0  0  0  0  0  0  0
    2.1778    1.5979    0.3514 H   0  0  0  0  0  0  0  0  0  0  0  0
    2.2313    4.1874    0.5413 H   0  0  0  0  0  0  0  0  0  0  0  0
    0.7488    4.1791    1.5051 H   0  0  0  0  0  0  0  0  0  0  0  0
    0.8163    5.1009   -0.0031 H   0  0  0  0  0  0  0  0  0  0  0  0
    0.9214    3.9009   -2.2452 H   0  0  0  0  0  0  0  0  0  0  0  0
    0.9639    2.1371   -2.3308 H   0  0  0  0  0  0  0  0  0  0  0  0
    2.3430    3.0180   -1.6740 H   0  0  0  0  0  0  0  0  0  0  0  0
   -1.2292    3.8131   -0.9468 H   0  0  0  0  0  0  0  0  0  0  0  0
   -1.3177    3.0451    0.6481 H   0  0  0  0  0  0  0  0  0  0  0  0
    2.4734   -3.0574   -0.3386 H   0  0  0  0  0  0  0  0  0  0  0  0
    1.2456   -3.9885   -0.9831 H   0  0  0  0  0  0  0  0  0  0  0  0
  1  2  1  0
  2  3  1  0
  3  4  2  0
  4  5  1  0
  5  6  2  0
  6  7  1  0
  6  8  1  0
  8  9  1  0
  9 10  2  0
 10 11  1  0
 11 12  3  0
 10 13  1  0
 13 14  1  0
 14 15  2  0
 14 16  1  0
 16 17  1  0
 17 18  2  0
 18 19  1  0
 19 20  2  0
 20 21  1  0
 20 22  1  0
 22 23  2  0
 13 24  1  0
 24 25  2  0
 25 26  1  0
 26 27  1  0
 27 28  1  0
 27 29  1  0
 27 30  1  0
 30 31  1  0
 31 32  2  0
  9 33  1  0
  7  3  1  0
 25  8  1  0
 23 13  1  0
 23 17  1  0
 31 24  1  0
  1 34  1  0
  1 35  1  0
  1 36  1  0
 16 37  1  0
 18 38  1  0
 19 39  1  0
 22 40  1  0
 26 41  1  0
 26 42  1  0
 28 43  1  0
 28 44  1  0
 28 45  1  0
 29 46  1  0
 29 47  1  0
 29 48  1  0
 30 49  1  0
 30 50  1  0
 33 51  1  0
 33 52  1  0
M  END
>  <Unnamed: 0>  (176) 
1097

>  <ID>  (176) 
TRAIN_1097

>  <Canonical_Smiles>  (176) 
CSc1nnc(s1)N2C(=C(C#N)C3(C(=O)Nc4ccc(F)cc34)C5=C2CC(C)(C)CC5=O)N

>  <Inhibition>  (176) 
37.3

>  <TDC_conf_true_inhibitor>  (176) 
1

>  <TDC_conf_non_inhibitor>  (176) 
0

>  <split>  (176) 
1

$$$$
176
     RDKit          3D

 89 93  0  0  0  0  0  0  0  0999 V2000
    6.3517   -1.5978   -1.8653 C   0  0  0  0  0  0  0  0  0  0  0  0
    5.2004   -1.1798   -0.9559 C   0  0  0  0  0  0  0  0  0  0  0  0
    4.0489   -2.1960   -1.0181 C   0  0  0  0  0  0  0  0  0  0  0  0
    2.8716   -1.9137   -0.1738 N   0  0  0  0  0  0  0  0  0  0  0  0
    3.1826   -1.8077    1.2669 C   0  0  0  0  0  0  0  0  0  0  0  0
    3.7938   -3.0867    1.8500 C   0  0  0  0  0  0  0  0  0  0  0  0
    3.8809   -3.0130    3.3696 C   0  0  0  0  0  0  0  0  0  0  0  0
    2.0983   -0.7355   -0.6143 C   0  0  0  0  0  0  0  0  0  0  0  0
    1.2977   -1.0049   -1.8980 C   0  0  0  0  0  0  0  0  0  0  0  0
    0.4873    0.2045   -2.3691 C   0  0  0  0  0  0  0  0  0  0  0  0
   -0.5628    0.6237   -1.4520 N   0  0  0  0  0  0  0  0  0  0  0  0
   -2.0124    0.4642   -1.7631 C   0  0  0  0  0  0  0  0  0  0  0  0
   -2.7066   -0.7169   -1.0667 C   0  0  0  0  0  0  0  0  0  0  0  0
   -3.9107   -0.9378   -1.2016 O   0  0  0  0  0  0  0  0  0  0  0  0
   -1.8900   -1.5087   -0.2841 N   0  0  0  0  0  0  0  0  0  0  0  0
   -2.4118   -2.6250    0.5039 C   0  0  0  0  0  0  0  0  0  0  0  0
   -1.4122   -3.0296    1.5995 C   0  0  0  0  0  0  0  0  0  0  0  0
   -0.1968   -3.7706    1.0497 C   0  0  0  0  0  0  0  0  0  0  0  0
   -0.5833   -4.9613    0.1759 C   0  0  0  0  0  0  0  0  0  0  0  0
   -1.5501   -4.5505   -0.9440 C   0  0  0  0  0  0  0  0  0  0  0  0
   -1.8926   -5.7540   -1.8276 C   0  0  0  0  0  0  0  0  0  0  0  0
   -2.8083   -3.8295   -0.3927 C   0  0  0  0  0  0  0  0  0  0  0  0
   -3.7614   -4.7637    0.3675 C   0  0  0  0  0  0  0  0  0  0  0  0
   -2.5541    1.7916   -1.2545 C   0  0  2  0  0  0  0  0  0  0  0  0
   -3.8318    2.0487   -0.6526 O   0  0  0  0  0  0  0  0  0  0  0  0
   -3.5572    3.4637   -0.3339 C   0  0  2  0  0  0  0  0  0  0  0  0
   -3.1963    3.9376   -1.7078 C   0  0  0  0  0  0  0  0  0  0  0  0
   -2.5188    2.9255   -2.2602 C   0  0  0  0  0  0  0  0  0  0  0  0
   -2.2730    3.3453    0.5396 C   0  0  0  0  0  0  0  0  0  0  0  0
   -1.7032    2.0341    0.0015 C   0  0  2  0  0  0  0  0  0  0  0  0
   -0.3472    1.6609   -0.5118 C   0  0  0  0  0  0  0  0  0  0  0  0
    0.7304    2.0659   -0.1190 O   0  0  0  0  0  0  0  0  0  0  0  0
   -1.4016    4.5870    0.4610 C   0  0  0  0  0  0  0  0  0  0  0  0
   -0.4738    4.6868   -0.3315 O   0  0  0  0  0  0  0  0  0  0  0  0
   -1.8311    5.5734    1.3383 N   0  0  0  0  0  0  0  0  0  0  0  0
   -1.2899    6.8659    1.5084 C   0  0  0  0  0  0  0  0  0  0  0  0
   -0.2198    7.3731    0.7652 C   0  0  0  0  0  0  0  0  0  0  0  0
    0.2480    8.6716    0.9886 C   0  0  0  0  0  0  0  0  0  0  0  0
   -0.3507    9.4690    1.9598 C   0  0  0  0  0  0  0  0  0  0  0  0
    0.1090   10.7159    2.1509 F   0  0  0  0  0  0  0  0  0  0  0  0
   -1.4077    8.9747    2.7149 C   0  0  0  0  0  0  0  0  0  0  0  0
   -2.1524    9.9396    3.9319 Cl  0  0  0  0  0  0  0  0  0  0  0  0
   -1.8783    7.6759    2.4899 C   0  0  0  0  0  0  0  0  0  0  0  0
    6.7441   -2.5814   -1.5796 H   0  0  0  0  0  0  0  0  0  0  0  0
    7.1713   -0.8741   -1.7912 H   0  0  0  0  0  0  0  0  0  0  0  0
    6.0318   -1.6411   -2.9129 H   0  0  0  0  0  0  0  0  0  0  0  0
    5.5849   -1.0895    0.0648 H   0  0  0  0  0  0  0  0  0  0  0  0
    4.8592   -0.1869   -1.2681 H   0  0  0  0  0  0  0  0  0  0  0  0
    4.4348   -3.1899   -0.7609 H   0  0  0  0  0  0  0  0  0  0  0  0
    3.7316   -2.3051   -2.0604 H   0  0  0  0  0  0  0  0  0  0  0  0
    3.8282   -0.9459    1.4769 H   0  0  0  0  0  0  0  0  0  0  0  0
    2.2455   -1.6317    1.8107 H   0  0  0  0  0  0  0  0  0  0  0  0
    4.8021   -3.2509    1.4539 H   0  0  0  0  0  0  0  0  0  0  0  0
    3.1784   -3.9524    1.5701 H   0  0  0  0  0  0  0  0  0  0  0  0
    2.8925   -2.8642    3.8151 H   0  0  0  0  0  0  0  0  0  0  0  0
    4.2941   -3.9432    3.7728 H   0  0  0  0  0  0  0  0  0  0  0  0
    4.5264   -2.1872    3.6875 H   0  0  0  0  0  0  0  0  0  0  0  0
    2.7371    0.1477   -0.7344 H   0  0  0  0  0  0  0  0  0  0  0  0
    1.3687   -0.4921    0.1674 H   0  0  0  0  0  0  0  0  0  0  0  0
    1.9750   -1.2752   -2.7126 H   0  0  0  0  0  0  0  0  0  0  0  0
    0.6275   -1.8570   -1.7453 H   0  0  0  0  0  0  0  0  0  0  0  0
    0.0269   -0.0255   -3.3358 H   0  0  0  0  0  0  0  0  0  0  0  0
    1.1634    1.0521   -2.5286 H   0  0  0  0  0  0  0  0  0  0  0  0
   -2.1396    0.3435   -2.8441 H   0  0  0  0  0  0  0  0  0  0  0  0
   -0.9148   -1.2454   -0.1899 H   0  0  0  0  0  0  0  0  0  0  0  0
   -3.3142   -2.2380    0.9969 H   0  0  0  0  0  0  0  0  0  0  0  0
   -1.0745   -2.1394    2.1477 H   0  0  0  0  0  0  0  0  0  0  0  0
   -1.9166   -3.6703    2.3334 H   0  0  0  0  0  0  0  0  0  0  0  0
    0.4344   -4.1097    1.8798 H   0  0  0  0  0  0  0  0  0  0  0  0
    0.4086   -3.0786    0.4595 H   0  0  0  0  0  0  0  0  0  0  0  0
    0.3273   -5.3921   -0.2595 H   0  0  0  0  0  0  0  0  0  0  0  0
   -1.0270   -5.7452    0.8007 H   0  0  0  0  0  0  0  0  0  0  0  0
   -1.0210   -3.8343   -1.5877 H   0  0  0  0  0  0  0  0  0  0  0  0
   -2.6160   -5.4732   -2.6026 H   0  0  0  0  0  0  0  0  0  0  0  0
   -0.9948   -6.1305   -2.3324 H   0  0  0  0  0  0  0  0  0  0  0  0
   -2.3120   -6.5806   -1.2439 H   0  0  0  0  0  0  0  0  0  0  0  0
   -3.3727   -3.4551   -1.2588 H   0  0  0  0  0  0  0  0  0  0  0  0
   -4.1752   -5.5281   -0.2967 H   0  0  0  0  0  0  0  0  0  0  0  0
   -3.2722   -5.2737    1.2012 H   0  0  0  0  0  0  0  0  0  0  0  0
   -4.6109   -4.2004    0.7714 H   0  0  0  0  0  0  0  0  0  0  0  0
   -4.4263    3.9384    0.1253 H   0  0  0  0  0  0  0  0  0  0  0  0
   -3.3535    4.9218   -2.1210 H   0  0  0  0  0  0  0  0  0  0  0  0
   -2.0303    2.9239   -3.2236 H   0  0  0  0  0  0  0  0  0  0  0  0
   -2.5597    3.1784    1.5875 H   0  0  0  0  0  0  0  0  0  0  0  0
   -1.9347    1.2750    0.7680 H   0  0  0  0  0  0  0  0  0  0  0  0
   -2.5969    5.3368    1.9568 H   0  0  0  0  0  0  0  0  0  0  0  0
    0.2817    6.7808    0.0012 H   0  0  0  0  0  0  0  0  0  0  0  0
    1.0772    9.0651    0.4070 H   0  0  0  0  0  0  0  0  0  0  0  0
   -2.7052    7.3078    3.0916 H   0  0  0  0  0  0  0  0  0  0  0  0
  1  2  1  0
  2  3  1  0
  3  4  1  0
  4  5  1  0
  5  6  1  0
  6  7  1  0
  4  8  1  0
  8  9  1  0
  9 10  1  0
 10 11  1  0
 11 12  1  0
 12 13  1  0
 13 14  2  0
 13 15  1  0
 15 16  1  0
 16 17  1  0
 17 18  1  0
 18 19  1  0
 19 20  1  0
 20 21  1  0
 20 22  1  0
 22 23  1  0
 24 12  1  6
 24 25  1  0
 25 26  1  0
 26 27  1  0
 27 28  2  0
 26 29  1  0
 29 30  1  0
 30 31  1  0
 31 32  2  0
 29 33  1  0
 33 34  2  0
 33 35  1  0
 35 36  1  0
 36 37  2  0
 37 38  1  0
 38 39  2  0
 39 40  1  0
 39 41  1  0
 41 42  1  0
 41 43  2  0
 31 11  1  0
 22 16  1  0
 28 24  1  0
 30 24  1  0
 43 36  1  0
  1 44  1  0
  1 45  1  0
  1 46  1  0
  2 47  1  0
  2 48  1  0
  3 49  1  0
  3 50  1  0
  5 51  1  0
  5 52  1  0
  6 53  1  0
  6 54  1  0
  7 55  1  0
  7 56  1  0
  7 57  1  0
  8 58  1  0
  8 59  1  0
  9 60  1  0
  9 61  1  0
 10 62  1  0
 10 63  1  0
 12 64  1  0
 15 65  1  0
 16 66  1  0
 17 67  1  0
 17 68  1  0
 18 69  1  0
 18 70  1  0
 19 71  1  0
 19 72  1  0
 20 73  1  0
 21 74  1  0
 21 75  1  0
 21 76  1  0
 22 77  1  0
 23 78  1  0
 23 79  1  0
 23 80  1  0
 26 81  1  1
 27 82  1  0
 28 83  1  0
 29 84  1  0
 30 85  1  1
 35 86  1  0
 37 87  1  0
 38 88  1  0
 43 89  1  0
M  END
>  <Unnamed: 0>  (177) 
1117

>  <ID>  (177) 
TRAIN_1117

>  <Canonical_Smiles>  (177) 
CCCN(CCC)CCCN1C(C(=O)NC2CCCC(C)C2C)[C@]34O[C@H](C=C3)C([C@@H]4C1=O)C(=O)Nc5ccc(F)c(Cl)c5

>  <Inhibition>  (177) 
58.3

>  <TDC_conf_true_inhibitor>  (177) 
1

>  <TDC_conf_non_inhibitor>  (177) 
0

>  <split>  (177) 
1

$$$$
177
     RDKit          3D

 57 60  0  0  0  0  0  0  0  0999 V2000
    7.8597   -1.0532    3.3240 C   0  0  0  0  0  0  0  0  0  0  0  0
    7.5163   -0.4223    1.9840 C   0  0  0  0  0  0  0  0  0  0  0  0
    6.1934   -0.9524    1.4393 C   0  0  0  0  0  0  0  0  0  0  0  0
    5.9009   -0.3453    0.0801 C   0  0  0  0  0  0  0  0  0  0  0  0
    5.0892    0.9102    0.0609 C   0  0  0  0  0  0  0  0  0  0  0  0
    4.8359    1.4331   -1.1506 C   0  0  0  0  0  0  0  0  0  0  0  0
    3.8995    2.8915   -1.3073 S   0  0  0  0  0  0  0  0  0  0  0  0
    2.2769    2.1554   -1.3728 C   0  0  0  0  0  0  0  0  0  0  0  0
    1.8101    1.5532   -2.5434 C   0  0  0  0  0  0  0  0  0  0  0  0
    0.5434    0.9602   -2.5751 C   0  0  0  0  0  0  0  0  0  0  0  0
   -0.2818    0.9764   -1.4443 C   0  0  0  0  0  0  0  0  0  0  0  0
   -1.5321    0.3335   -1.5477 N   0  0  0  0  0  0  0  0  0  0  0  0
   -2.5761    0.3714   -0.6338 C   0  0  0  0  0  0  0  0  0  0  0  0
   -2.6150    1.0858    0.3588 O   0  0  0  0  0  0  0  0  0  0  0  0
   -3.5658   -0.5272   -1.0091 N   0  0  0  0  0  0  0  0  0  0  0  0
   -4.8333   -0.7021   -0.4111 C   0  0  0  0  0  0  0  0  0  0  0  0
   -5.5650   -1.8326   -0.7862 C   0  0  0  0  0  0  0  0  0  0  0  0
   -6.8303   -2.0777   -0.2429 C   0  0  0  0  0  0  0  0  0  0  0  0
   -7.3844   -1.1905    0.6831 C   0  0  0  0  0  0  0  0  0  0  0  0
   -8.6145   -1.3506    1.2704 O   0  0  0  0  0  0  0  0  0  0  0  0
   -9.2999   -2.5727    1.0400 C   0  0  0  0  0  0  0  0  0  0  0  0
   -6.6630   -0.0385    1.0530 C   0  0  0  0  0  0  0  0  0  0  0  0
   -7.2826    0.7946    1.9526 O   0  0  0  0  0  0  0  0  0  0  0  0
   -6.5556    1.9265    2.4117 C   0  0  0  0  0  0  0  0  0  0  0  0
   -5.3953    0.1973    0.5001 C   0  0  0  0  0  0  0  0  0  0  0  0
    0.1834    1.5916   -0.2802 C   0  0  0  0  0  0  0  0  0  0  0  0
    1.4529    2.1817   -0.2458 C   0  0  0  0  0  0  0  0  0  0  0  0
    5.3462    0.8016   -2.2937 N   0  0  0  0  0  0  0  0  0  0  0  0
    5.2311    1.1278   -3.6129 N   0  0  0  0  0  0  0  0  0  0  0  0
    5.9251    0.1574   -4.2040 C   0  0  0  0  0  0  0  0  0  0  0  0
    6.4668   -0.7750   -3.3791 N   0  0  0  0  0  0  0  0  0  0  0  0
    6.1075   -0.3721   -2.1797 C   0  0  0  0  0  0  0  0  0  0  0  0
    6.3812   -0.9408   -0.9702 N   0  0  0  0  0  0  0  0  0  0  0  0
    7.9686   -2.1392    3.2280 H   0  0  0  0  0  0  0  0  0  0  0  0
    8.8047   -0.6499    3.7014 H   0  0  0  0  0  0  0  0  0  0  0  0
    7.0810   -0.8488    4.0675 H   0  0  0  0  0  0  0  0  0  0  0  0
    7.4646    0.6673    2.0967 H   0  0  0  0  0  0  0  0  0  0  0  0
    8.3247   -0.6263    1.2712 H   0  0  0  0  0  0  0  0  0  0  0  0
    6.2320   -2.0435    1.3322 H   0  0  0  0  0  0  0  0  0  0  0  0
    5.3732   -0.7224    2.1295 H   0  0  0  0  0  0  0  0  0  0  0  0
    4.7443    1.3346    0.9944 H   0  0  0  0  0  0  0  0  0  0  0  0
    2.4264    1.5351   -3.4407 H   0  0  0  0  0  0  0  0  0  0  0  0
    0.2175    0.4883   -3.4994 H   0  0  0  0  0  0  0  0  0  0  0  0
   -1.7571   -0.0580   -2.4504 H   0  0  0  0  0  0  0  0  0  0  0  0
   -3.2712   -1.2558   -1.6423 H   0  0  0  0  0  0  0  0  0  0  0  0
   -5.1632   -2.5461   -1.5005 H   0  0  0  0  0  0  0  0  0  0  0  0
   -7.3579   -2.9686   -0.5660 H   0  0  0  0  0  0  0  0  0  0  0  0
  -10.2139   -2.5617    1.6403 H   0  0  0  0  0  0  0  0  0  0  0  0
   -8.7008   -3.4314    1.3620 H   0  0  0  0  0  0  0  0  0  0  0  0
   -9.5934   -2.6672   -0.0109 H   0  0  0  0  0  0  0  0  0  0  0  0
   -6.3604    2.6276    1.5932 H   0  0  0  0  0  0  0  0  0  0  0  0
   -7.1763    2.4456    3.1492 H   0  0  0  0  0  0  0  0  0  0  0  0
   -5.6291    1.6281    2.9119 H   0  0  0  0  0  0  0  0  0  0  0  0
   -4.8491    1.0922    0.7704 H   0  0  0  0  0  0  0  0  0  0  0  0
   -0.4135    1.6209    0.6260 H   0  0  0  0  0  0  0  0  0  0  0  0
    1.7858    2.6553    0.6741 H   0  0  0  0  0  0  0  0  0  0  0  0
    6.0383    0.1275   -5.2808 H   0  0  0  0  0  0  0  0  0  0  0  0
  1  2  1  0
  2  3  1  0
  3  4  1  0
  4  5  1  0
  5  6  2  0
  6  7  1  0
  7  8  1  0
  8  9  2  0
  9 10  1  0
 10 11  2  0
 11 12  1  0
 12 13  1  0
 13 14  2  0
 13 15  1  0
 15 16  1  0
 16 17  2  0
 17 18  1  0
 18 19  2  0
 19 20  1  0
 20 21  1  0
 19 22  1  0
 22 23  1  0
 23 24  1  0
 22 25  2  0
 11 26  1  0
 26 27  2  0
  6 28  1  0
 28 29  1  0
 29 30  2  0
 30 31  1  0
 31 32  2  0
 32 33  1  0
 33  4  2  0
 27  8  1  0
 25 16  1  0
 32 28  1  0
  1 34  1  0
  1 35  1  0
  1 36  1  0
  2 37  1  0
  2 38  1  0
  3 39  1  0
  3 40  1  0
  5 41  1  0
  9 42  1  0
 10 43  1  0
 12 44  1  0
 15 45  1  0
 17 46  1  0
 18 47  1  0
 21 48  1  0
 21 49  1  0
 21 50  1  0
 24 51  1  0
 24 52  1  0
 24 53  1  0
 25 54  1  0
 26 55  1  0
 27 56  1  0
 30 57  1  0
M  END
>  <Unnamed: 0>  (178) 
1128

>  <ID>  (178) 
TRAIN_1128

>  <Canonical_Smiles>  (178) 
CCCc1cc(Sc2ccc(NC(=O)Nc3ccc(OC)c(OC)c3)cc2)n4ncnc4n1

>  <Inhibition>  (178) 
75.1

>  <TDC_conf_true_inhibitor>  (178) 
1

>  <TDC_conf_non_inhibitor>  (178) 
0

>  <split>  (178) 
1

$$$$
178
     RDKit          3D

 36 38  0  0  0  0  0  0  0  0999 V2000
   -2.9337   -2.1660    0.2452 C   0  0  0  0  0  0  0  0  0  0  0  0
   -3.2636   -0.7588   -0.1603 C   0  0  0  0  0  0  0  0  0  0  0  0
   -4.4345   -0.5174   -0.8807 C   0  0  0  0  0  0  0  0  0  0  0  0
   -4.8464    0.7006   -1.2875 N   0  0  0  0  0  0  0  0  0  0  0  0
   -4.0631    1.7359   -0.9383 C   0  0  0  0  0  0  0  0  0  0  0  0
   -2.8770    1.6051   -0.2307 C   0  0  0  0  0  0  0  0  0  0  0  0
   -2.4289    0.3340    0.1415 C   0  0  0  0  0  0  0  0  0  0  0  0
   -1.2667    0.1424    0.8961 N   0  0  0  0  0  0  0  0  0  0  0  0
   -0.1549    1.1034    0.8699 C   0  0  0  0  0  0  0  0  0  0  0  0
    0.5713    1.1431   -0.4797 C   0  0  0  0  0  0  0  0  0  0  0  0
    1.2378   -0.1042   -0.8088 N   0  0  0  0  0  0  0  0  0  0  0  0
    0.7488   -1.0494   -1.6751 C   0  0  0  0  0  0  0  0  0  0  0  0
    1.6944   -2.0446   -1.6942 C   0  0  0  0  0  0  0  0  0  0  0  0
    2.7436   -1.7324   -0.8694 N   0  0  0  0  0  0  0  0  0  0  0  0
    2.4530   -0.5523   -0.3492 C   0  0  0  0  0  0  0  0  0  0  0  0
    3.3116    0.1249    0.5678 C   0  0  0  0  0  0  0  0  0  0  0  0
    3.0939    1.2822    1.1604 N   0  0  0  0  0  0  0  0  0  0  0  0
    4.2000    1.5034    1.9443 C   0  0  0  0  0  0  0  0  0  0  0  0
    5.0981    0.4692    1.8279 C   0  0  0  0  0  0  0  0  0  0  0  0
    4.5189   -0.4016    0.9484 N   0  0  0  0  0  0  0  0  0  0  0  0
   -3.7462   -2.8579   -0.0016 H   0  0  0  0  0  0  0  0  0  0  0  0
   -2.0348   -2.5098   -0.2765 H   0  0  0  0  0  0  0  0  0  0  0  0
   -2.7749   -2.2260    1.3268 H   0  0  0  0  0  0  0  0  0  0  0  0
   -5.1032   -1.3294   -1.1557 H   0  0  0  0  0  0  0  0  0  0  0  0
   -4.4242    2.7137   -1.2437 H   0  0  0  0  0  0  0  0  0  0  0  0
   -2.3323    2.5051    0.0245 H   0  0  0  0  0  0  0  0  0  0  0  0
   -0.9303   -0.8181    0.8732 H   0  0  0  0  0  0  0  0  0  0  0  0
    0.5389    0.8082    1.6644 H   0  0  0  0  0  0  0  0  0  0  0  0
   -0.5042    2.1055    1.1408 H   0  0  0  0  0  0  0  0  0  0  0  0
    1.3229    1.9387   -0.4954 H   0  0  0  0  0  0  0  0  0  0  0  0
   -0.1253    1.3646   -1.2965 H   0  0  0  0  0  0  0  0  0  0  0  0
   -0.1994   -0.9367   -2.1836 H   0  0  0  0  0  0  0  0  0  0  0  0
    1.6754   -2.9680   -2.2587 H   0  0  0  0  0  0  0  0  0  0  0  0
    4.2911    2.3953    2.5512 H   0  0  0  0  0  0  0  0  0  0  0  0
    6.0631    0.2824    2.2768 H   0  0  0  0  0  0  0  0  0  0  0  0
    4.8809   -1.2848    0.6133 H   0  0  0  0  0  0  0  0  0  0  0  0
  1  2  1  0
  2  3  2  0
  3  4  1  0
  4  5  2  0
  5  6  1  0
  6  7  2  0
  7  8  1  0
  8  9  1  0
  9 10  1  0
 10 11  1  0
 11 12  1  0
 12 13  2  0
 13 14  1  0
 14 15  2  0
 15 16  1  0
 16 17  2  0
 17 18  1  0
 18 19  2  0
 19 20  1  0
  7  2  1  0
 15 11  1  0
 20 16  1  0
  1 21  1  0
  1 22  1  0
  1 23  1  0
  3 24  1  0
  5 25  1  0
  6 26  1  0
  8 27  1  0
  9 28  1  0
  9 29  1  0
 10 30  1  0
 10 31  1  0
 12 32  1  0
 13 33  1  0
 18 34  1  0
 19 35  1  0
 20 36  1  0
M  END
>  <Unnamed: 0>  (179) 
1133

>  <ID>  (179) 
TRAIN_1133

>  <Canonical_Smiles>  (179) 
Cc1cnccc1NCCn2ccnc2c3ncc[nH]3

>  <Inhibition>  (179) 
23.8

>  <TDC_conf_true_inhibitor>  (179) 
1

>  <TDC_conf_non_inhibitor>  (179) 
0

>  <split>  (179) 
1

$$$$
179
     RDKit          3D

 49 53  0  0  0  0  0  0  0  0999 V2000
   -1.0847    1.6405    2.3827 Cl  0  0  0  0  0  0  0  0  0  0  0  0
   -2.6381    1.3491    1.6771 C   0  0  0  0  0  0  0  0  0  0  0  0
   -3.7127    1.9692    2.3337 C   0  0  0  0  0  0  0  0  0  0  0  0
   -5.0137    1.8152    1.8700 C   0  0  0  0  0  0  0  0  0  0  0  0
   -5.2464    1.0364    0.7468 C   0  0  0  0  0  0  0  0  0  0  0  0
   -4.1803    0.4152    0.0861 C   0  0  0  0  0  0  0  0  0  0  0  0
   -2.8427    0.5533    0.5218 C   0  0  0  0  0  0  0  0  0  0  0  0
   -1.6738   -0.1555   -0.2391 C   0  0  0  0  0  0  0  0  0  0  0  0
   -1.1032   -1.2507    0.7245 C   0  0  0  0  0  0  0  0  0  0  0  0
   -0.5224   -2.4502   -0.0220 C   0  0  0  0  0  0  0  0  0  0  0  0
   -1.5254   -3.1608   -0.8148 N   0  0  0  0  0  0  0  0  0  0  0  0
   -2.5757   -2.2964   -1.3450 C   0  0  0  0  0  0  0  0  0  0  0  0
   -2.0891   -0.8665   -1.5757 C   0  0  0  0  0  0  0  0  0  0  0  0
   -0.5995    0.8683   -0.6874 C   0  0  0  0  0  0  0  0  0  0  0  0
   -0.9689    2.0365   -1.3393 C   0  0  0  0  0  0  0  0  0  0  0  0
    0.0489    2.8689   -1.7414 C   0  0  0  0  0  0  0  0  0  0  0  0
    1.3487    2.6001   -1.5460 N   0  0  0  0  0  0  0  0  0  0  0  0
    1.6255    1.4443   -0.9117 C   0  0  0  0  0  0  0  0  0  0  0  0
    0.7023    0.5611   -0.4839 N   0  0  0  0  0  0  0  0  0  0  0  0
    3.0319    1.1198   -0.6945 C   0  0  0  0  0  0  0  0  0  0  0  0
    4.0684    1.8321   -1.2762 C   0  0  0  0  0  0  0  0  0  0  0  0
    5.2538    1.2763   -0.8849 N   0  0  0  0  0  0  0  0  0  0  0  0
    5.0262    0.2104   -0.0477 C   0  0  0  0  0  0  0  0  0  0  0  0
    5.9378   -0.6425    0.5878 C   0  0  0  0  0  0  0  0  0  0  0  0
    5.4230   -1.6550    1.4014 C   0  0  0  0  0  0  0  0  0  0  0  0
    4.0505   -1.8049    1.5733 C   0  0  0  0  0  0  0  0  0  0  0  0
    3.1547   -0.9431    0.9302 C   0  0  0  0  0  0  0  0  0  0  0  0
    3.6411    0.0872    0.0959 C   0  0  0  0  0  0  0  0  0  0  0  0
   -3.5354    2.5781    3.2180 H   0  0  0  0  0  0  0  0  0  0  0  0
   -5.8396    2.2974    2.3861 H   0  0  0  0  0  0  0  0  0  0  0  0
   -6.2621    0.9044    0.3798 H   0  0  0  0  0  0  0  0  0  0  0  0
   -4.4437   -0.1856   -0.7793 H   0  0  0  0  0  0  0  0  0  0  0  0
   -0.3344   -0.8491    1.3927 H   0  0  0  0  0  0  0  0  0  0  0  0
   -1.8982   -1.6278    1.3848 H   0  0  0  0  0  0  0  0  0  0  0  0
   -0.0816   -3.1513    0.6960 H   0  0  0  0  0  0  0  0  0  0  0  0
    0.2957   -2.1364   -0.6798 H   0  0  0  0  0  0  0  0  0  0  0  0
   -1.9435   -3.9105   -0.2645 H   0  0  0  0  0  0  0  0  0  0  0  0
   -2.9279   -2.7211   -2.2912 H   0  0  0  0  0  0  0  0  0  0  0  0
   -3.4304   -2.3045   -0.6598 H   0  0  0  0  0  0  0  0  0  0  0  0
   -2.8332   -0.2885   -2.1362 H   0  0  0  0  0  0  0  0  0  0  0  0
   -1.2281   -0.9290   -2.2600 H   0  0  0  0  0  0  0  0  0  0  0  0
   -2.0021    2.2952   -1.5307 H   0  0  0  0  0  0  0  0  0  0  0  0
   -0.1598    3.8041   -2.2523 H   0  0  0  0  0  0  0  0  0  0  0  0
    4.0511    2.6877   -1.9389 H   0  0  0  0  0  0  0  0  0  0  0  0
    6.1692    1.5998   -1.1646 H   0  0  0  0  0  0  0  0  0  0  0  0
    7.0087   -0.5258    0.4584 H   0  0  0  0  0  0  0  0  0  0  0  0
    6.1051   -2.3331    1.9087 H   0  0  0  0  0  0  0  0  0  0  0  0
    3.6667   -2.5955    2.2128 H   0  0  0  0  0  0  0  0  0  0  0  0
    2.0871   -1.0667    1.0780 H   0  0  0  0  0  0  0  0  0  0  0  0
  1  2  1  0
  2  3  2  0
  3  4  1  0
  4  5  2  0
  5  6  1  0
  6  7  2  0
  7  8  1  0
  8  9  1  0
  9 10  1  0
 10 11  1  0
 11 12  1  0
 12 13  1  0
  8 14  1  0
 14 15  2  0
 15 16  1  0
 16 17  2  0
 17 18  1  0
 18 19  2  0
 18 20  1  0
 20 21  2  0
 21 22  1  0
 22 23  1  0
 23 24  2  0
 24 25  1  0
 25 26  2  0
 26 27  1  0
 27 28  2  0
  7  2  1  0
 13  8  1  0
 19 14  1  0
 28 20  1  0
 28 23  1  0
  3 29  1  0
  4 30  1  0
  5 31  1  0
  6 32  1  0
  9 33  1  0
  9 34  1  0
 10 35  1  0
 10 36  1  0
 11 37  1  0
 12 38  1  0
 12 39  1  0
 13 40  1  0
 13 41  1  0
 15 42  1  0
 16 43  1  0
 21 44  1  0
 22 45  1  0
 24 46  1  0
 25 47  1  0
 26 48  1  0
 27 49  1  0
M  END
>  <Unnamed: 0>  (180) 
1135

>  <ID>  (180) 
TRAIN_1135

>  <Canonical_Smiles>  (180) 
Clc1ccccc1C2(CCNCC2)c3ccnc(n3)c4c[nH]c5ccccc45

>  <Inhibition>  (180) 
68.7

>  <TDC_conf_true_inhibitor>  (180) 
1

>  <TDC_conf_non_inhibitor>  (180) 
0

>  <split>  (180) 
1

$$$$
180
     RDKit          3D

 48 51  0  0  0  0  0  0  0  0999 V2000
   -6.8981   -1.2390    1.1844 O   0  0  0  0  0  0  0  0  0  0  0  0
   -7.3296   -0.3963    0.1227 C   0  0  0  0  0  0  0  0  0  0  0  0
   -6.1364    0.2938   -0.4162 C   0  0  0  0  0  0  0  0  0  0  0  0
   -5.2529   -0.4825   -1.1085 O   0  0  0  0  0  0  0  0  0  0  0  0
   -4.2315    0.3303   -1.5079 C   0  0  0  0  0  0  0  0  0  0  0  0
   -3.1387   -0.3037   -2.3009 C   0  0  0  0  0  0  0  0  0  0  0  0
   -1.8232   -0.1987   -1.6387 N   0  0  0  0  0  0  0  0  0  0  0  0
   -1.7683   -1.0340   -0.4268 C   0  0  0  0  0  0  0  0  0  0  0  0
   -0.4181   -0.8963    0.2804 C   0  0  0  0  0  0  0  0  0  0  0  0
    0.7353   -1.2463   -0.6652 C   0  0  0  0  0  0  0  0  0  0  0  0
    0.6250   -0.4168   -1.9491 C   0  0  0  0  0  0  0  0  0  0  0  0
   -0.7584   -0.5704   -2.5816 C   0  0  0  0  0  0  0  0  0  0  0  0
    2.0653   -1.0566   -0.0039 C   0  0  0  0  0  0  0  0  0  0  0  0
    2.7034    0.0572    0.4988 C   0  0  0  0  0  0  0  0  0  0  0  0
    3.9600   -0.3981    0.9814 C   0  0  0  0  0  0  0  0  0  0  0  0
    4.0685   -1.7288    0.8270 N   0  0  0  0  0  0  0  0  0  0  0  0
    2.9328   -2.0907    0.2140 N   0  0  0  0  0  0  0  0  0  0  0  0
    5.0220    0.3780    1.6205 C   0  0  0  0  0  0  0  0  0  0  0  0
    5.5746   -0.1139    2.8174 C   0  0  0  0  0  0  0  0  0  0  0  0
    6.5776    0.5870    3.4910 C   0  0  0  0  0  0  0  0  0  0  0  0
    7.0507    1.7883    2.9747 C   0  0  0  0  0  0  0  0  0  0  0  0
    6.5252    2.2847    1.7804 C   0  0  0  0  0  0  0  0  0  0  0  0
    5.5164    1.5866    1.1013 C   0  0  0  0  0  0  0  0  0  0  0  0
    4.9652    2.2745   -0.3898 Cl  0  0  0  0  0  0  0  0  0  0  0  0
   -4.4556    1.6192   -1.0683 C   0  0  0  0  0  0  0  0  0  0  0  0
   -5.6827    1.5946   -0.3629 C   0  0  0  0  0  0  0  0  0  0  0  0
   -6.1126   -1.7081    0.8492 H   0  0  0  0  0  0  0  0  0  0  0  0
   -7.8066   -1.0119   -0.6421 H   0  0  0  0  0  0  0  0  0  0  0  0
   -8.0655    0.3103    0.5139 H   0  0  0  0  0  0  0  0  0  0  0  0
   -3.1057    0.2224   -3.2646 H   0  0  0  0  0  0  0  0  0  0  0  0
   -3.3832   -1.3511   -2.5224 H   0  0  0  0  0  0  0  0  0  0  0  0
   -1.9479   -2.0891   -0.6728 H   0  0  0  0  0  0  0  0  0  0  0  0
   -2.5439   -0.7311    0.2858 H   0  0  0  0  0  0  0  0  0  0  0  0
   -0.3102    0.1308    0.6561 H   0  0  0  0  0  0  0  0  0  0  0  0
   -0.3981   -1.5535    1.1597 H   0  0  0  0  0  0  0  0  0  0  0  0
    0.6335   -2.3060   -0.9408 H   0  0  0  0  0  0  0  0  0  0  0  0
    1.3922   -0.7301   -2.6685 H   0  0  0  0  0  0  0  0  0  0  0  0
    0.8102    0.6455   -1.7388 H   0  0  0  0  0  0  0  0  0  0  0  0
   -0.8913   -1.6020   -2.9341 H   0  0  0  0  0  0  0  0  0  0  0  0
   -0.7986    0.0816   -3.4631 H   0  0  0  0  0  0  0  0  0  0  0  0
    2.3172    1.0686    0.5135 H   0  0  0  0  0  0  0  0  0  0  0  0
    2.8127   -3.0701   -0.0230 H   0  0  0  0  0  0  0  0  0  0  0  0
    5.2151   -1.0544    3.2314 H   0  0  0  0  0  0  0  0  0  0  0  0
    6.9859    0.1916    4.4174 H   0  0  0  0  0  0  0  0  0  0  0  0
    7.8322    2.3359    3.4949 H   0  0  0  0  0  0  0  0  0  0  0  0
    6.9118    3.2181    1.3759 H   0  0  0  0  0  0  0  0  0  0  0  0
   -3.8018    2.4649   -1.2337 H   0  0  0  0  0  0  0  0  0  0  0  0
   -6.1736    2.4203    0.1321 H   0  0  0  0  0  0  0  0  0  0  0  0
  1  2  1  0
  2  3  1  0
  3  4  1  0
  4  5  1  0
  5  6  1  0
  6  7  1  0
  7  8  1  0
  8  9  1  0
  9 10  1  0
 10 11  1  0
 11 12  1  0
 10 13  1  0
 13 14  2  0
 14 15  1  0
 15 16  2  0
 16 17  1  0
 15 18  1  0
 18 19  2  0
 19 20  1  0
 20 21  2  0
 21 22  1  0
 22 23  2  0
 23 24  1  0
  5 25  2  0
 25 26  1  0
 26  3  2  0
 12  7  1  0
 17 13  1  0
 23 18  1  0
  1 27  1  0
  2 28  1  0
  2 29  1  0
  6 30  1  0
  6 31  1  0
  8 32  1  0
  8 33  1  0
  9 34  1  0
  9 35  1  0
 10 36  1  0
 11 37  1  0
 11 38  1  0
 12 39  1  0
 12 40  1  0
 14 41  1  0
 17 42  1  0
 19 43  1  0
 20 44  1  0
 21 45  1  0
 22 46  1  0
 25 47  1  0
 26 48  1  0
M  END
>  <Unnamed: 0>  (181) 
1149

>  <ID>  (181) 
TRAIN_1149

>  <Canonical_Smiles>  (181) 
OCc1oc(CN2CCC(CC2)c3cc(n[nH]3)c4ccccc4Cl)cc1

>  <Inhibition>  (181) 
26.1

>  <TDC_conf_true_inhibitor>  (181) 
1

>  <TDC_conf_non_inhibitor>  (181) 
0

>  <split>  (181) 
1

$$$$
181
     RDKit          3D

 50 53  0  0  0  0  0  0  0  0999 V2000
   -6.7115   -0.4205   -0.6060 C   0  0  0  0  0  0  0  0  0  0  0  0
   -5.4511   -0.2767    0.1042 N   0  0  0  0  0  0  0  0  0  0  0  0
   -4.3132   -0.8549   -0.4412 C   0  0  0  0  0  0  0  0  0  0  0  0
   -3.1192   -0.7413    0.1596 C   0  0  0  0  0  0  0  0  0  0  0  0
   -3.0166   -0.0549    1.4289 C   0  0  0  0  0  0  0  0  0  0  0  0
   -4.0960    0.5158    1.9800 C   0  0  0  0  0  0  0  0  0  0  0  0
   -5.4213    0.4399    1.3017 C   0  0  0  0  0  0  0  0  0  0  0  0
   -6.3883    0.9931    1.8173 O   0  0  0  0  0  0  0  0  0  0  0  0
   -1.9510   -1.4169   -0.4743 C   0  0  0  0  0  0  0  0  0  0  0  0
   -2.0183   -2.6164   -0.7403 O   0  0  0  0  0  0  0  0  0  0  0  0
   -0.8097   -0.6489   -0.7086 N   0  0  0  0  0  0  0  0  0  0  0  0
    0.3747   -1.3860   -1.1621 C   0  0  0  0  0  0  0  0  0  0  0  0
    1.7336   -0.7173   -0.8461 C   0  0  1  0  0  0  0  0  0  0  0  0
    2.0972    0.3360   -1.9006 C   0  0  0  0  0  0  0  0  0  0  0  0
    1.4256    1.6792   -1.6387 C   0  0  0  0  0  0  0  0  0  0  0  0
    0.3617    1.6028   -0.5433 C   0  0  1  0  0  0  0  0  0  0  0  0
   -0.8703    0.7971   -0.9659 C   0  0  0  0  0  0  0  0  0  0  0  0
    0.9701    1.0211    0.7206 C   0  0  0  0  0  0  0  0  0  0  0  0
    0.7439    1.5003    1.8277 O   0  0  0  0  0  0  0  0  0  0  0  0
    1.7483   -0.1160    0.4955 N   0  0  0  0  0  0  0  0  0  0  0  0
    2.2232   -0.9004    1.6279 C   0  0  0  0  0  0  0  0  0  0  0  0
    3.6636   -0.5366    1.9640 C   0  0  0  0  0  0  0  0  0  0  0  0
    4.1131    0.9466    2.1090 C   0  0  0  0  0  0  0  0  0  0  0  0
    5.5084    0.4859    1.6353 C   0  0  0  0  0  0  0  0  0  0  0  0
    4.7990   -0.6798    0.9120 C   0  0  0  0  0  0  0  0  0  0  0  0
   -6.8993   -1.4816   -0.7973 H   0  0  0  0  0  0  0  0  0  0  0  0
   -7.5492   -0.0165   -0.0319 H   0  0  0  0  0  0  0  0  0  0  0  0
   -6.6441    0.1171   -1.5569 H   0  0  0  0  0  0  0  0  0  0  0  0
   -4.4365   -1.4001   -1.3738 H   0  0  0  0  0  0  0  0  0  0  0  0
   -2.0508   -0.0131    1.9245 H   0  0  0  0  0  0  0  0  0  0  0  0
   -4.0633    1.0413    2.9257 H   0  0  0  0  0  0  0  0  0  0  0  0
    0.3692   -2.3646   -0.6653 H   0  0  0  0  0  0  0  0  0  0  0  0
    0.2649   -1.5787   -2.2356 H   0  0  0  0  0  0  0  0  0  0  0  0
    2.5069   -1.4943   -0.8916 H   0  0  0  0  0  0  0  0  0  0  0  0
    3.1833    0.4937   -1.8972 H   0  0  0  0  0  0  0  0  0  0  0  0
    1.8533   -0.0235   -2.9075 H   0  0  0  0  0  0  0  0  0  0  0  0
    1.0000    2.0748   -2.5685 H   0  0  0  0  0  0  0  0  0  0  0  0
    2.1975    2.3966   -1.3289 H   0  0  0  0  0  0  0  0  0  0  0  0
    0.0500    2.6330   -0.3293 H   0  0  0  0  0  0  0  0  0  0  0  0
   -1.7396    1.2317   -0.4676 H   0  0  0  0  0  0  0  0  0  0  0  0
   -1.0643    0.9195   -2.0392 H   0  0  0  0  0  0  0  0  0  0  0  0
    2.1341   -1.9666    1.3921 H   0  0  0  0  0  0  0  0  0  0  0  0
    1.5854   -0.7073    2.4978 H   0  0  0  0  0  0  0  0  0  0  0  0
    3.9237   -1.1032    2.8744 H   0  0  0  0  0  0  0  0  0  0  0  0
    4.0683    1.3576    3.1207 H   0  0  0  0  0  0  0  0  0  0  0  0
    3.6423    1.6538    1.4180 H   0  0  0  0  0  0  0  0  0  0  0  0
    6.0484    1.1857    0.9926 H   0  0  0  0  0  0  0  0  0  0  0  0
    6.1680    0.1648    2.4497 H   0  0  0  0  0  0  0  0  0  0  0  0
    5.3322   -1.6342    0.9191 H   0  0  0  0  0  0  0  0  0  0  0  0
    4.5235   -0.4370   -0.1176 H   0  0  0  0  0  0  0  0  0  0  0  0
  1  2  1  0
  2  3  1  0
  3  4  2  0
  4  5  1  0
  5  6  2  0
  6  7  1  0
  7  8  2  0
  4  9  1  0
  9 10  2  0
  9 11  1  0
 11 12  1  0
 12 13  1  0
 13 14  1  0
 14 15  1  0
 15 16  1  0
 16 17  1  0
 16 18  1  0
 18 19  2  0
 18 20  1  0
 20 21  1  0
 21 22  1  0
 22 23  1  0
 23 24  1  0
 24 25  1  0
  7  2  1  0
 17 11  1  0
 20 13  1  0
 25 22  1  0
  1 26  1  0
  1 27  1  0
  1 28  1  0
  3 29  1  0
  5 30  1  0
  6 31  1  0
 12 32  1  0
 12 33  1  0
 13 34  1  1
 14 35  1  0
 14 36  1  0
 15 37  1  0
 15 38  1  0
 16 39  1  1
 17 40  1  0
 17 41  1  0
 21 42  1  0
 21 43  1  0
 22 44  1  0
 23 45  1  0
 23 46  1  0
 24 47  1  0
 24 48  1  0
 25 49  1  0
 25 50  1  0
M  END
>  <Unnamed: 0>  (182) 
1161

>  <ID>  (182) 
TRAIN_1161

>  <Canonical_Smiles>  (182) 
CN1C=C(C=CC1=O)C(=O)N2C[C@H]3CC[C@@H](C2)C(=O)N3CC4CCC4

>  <Inhibition>  (182) 
38.7

>  <TDC_conf_true_inhibitor>  (182) 
1

>  <TDC_conf_non_inhibitor>  (182) 
0

>  <split>  (182) 
1

$$$$
182
     RDKit          3D

 42 46  0  0  0  0  0  0  0  0999 V2000
   -5.7650    2.0651   -0.4421 C   0  0  0  0  0  0  0  0  0  0  0  0
   -4.8158    1.4367    0.5052 C   0  0  0  0  0  0  0  0  0  0  0  0
   -4.6464    1.9527    1.7728 N   0  0  0  0  0  0  0  0  0  0  0  0
   -3.7831    1.1599    2.3615 C   0  0  0  0  0  0  0  0  0  0  0  0
   -3.3791    0.1559    1.5301 N   0  0  0  0  0  0  0  0  0  0  0  0
   -3.9997    0.3352    0.3181 C   0  0  0  0  0  0  0  0  0  0  0  0
   -3.8423   -0.5251   -0.8129 C   0  0  0  0  0  0  0  0  0  0  0  0
   -4.8917   -0.9335   -1.5020 N   0  0  0  0  0  0  0  0  0  0  0  0
   -4.4313   -1.8824   -2.3640 C   0  0  0  0  0  0  0  0  0  0  0  0
   -3.0770   -2.0480   -2.2217 C   0  0  0  0  0  0  0  0  0  0  0  0
   -2.6695   -1.1187   -1.2822 N   0  0  0  0  0  0  0  0  0  0  0  0
   -1.3129   -0.8573   -0.9274 C   0  0  0  0  0  0  0  0  0  0  0  0
   -0.3427   -1.8577   -1.0811 C   0  0  0  0  0  0  0  0  0  0  0  0
    0.9925   -1.6141   -0.7298 C   0  0  0  0  0  0  0  0  0  0  0  0
    1.3877   -0.3655   -0.2341 C   0  0  0  0  0  0  0  0  0  0  0  0
    0.4134    0.6330   -0.1019 C   0  0  0  0  0  0  0  0  0  0  0  0
   -0.9211    0.3981   -0.4527 C   0  0  0  0  0  0  0  0  0  0  0  0
    2.7705   -0.0695    0.1537 C   0  0  0  0  0  0  0  0  0  0  0  0
    3.1587    0.9453    0.9064 N   0  0  0  0  0  0  0  0  0  0  0  0
    4.5234    0.8476    1.0117 C   0  0  0  0  0  0  0  0  0  0  0  0
    5.4331    1.6631    1.6990 C   0  0  0  0  0  0  0  0  0  0  0  0
    6.7956    1.3423    1.6447 C   0  0  0  0  0  0  0  0  0  0  0  0
    7.2412    0.2341    0.9198 C   0  0  0  0  0  0  0  0  0  0  0  0
    6.3467   -0.5901    0.2266 C   0  0  0  0  0  0  0  0  0  0  0  0
    4.9954   -0.2469    0.3010 C   0  0  0  0  0  0  0  0  0  0  0  0
    3.8664   -0.8066   -0.2378 N   0  0  0  0  0  0  0  0  0  0  0  0
   -6.6690    1.4559   -0.5357 H   0  0  0  0  0  0  0  0  0  0  0  0
   -5.3133    2.1742   -1.4329 H   0  0  0  0  0  0  0  0  0  0  0  0
   -6.0587    3.0605   -0.0957 H   0  0  0  0  0  0  0  0  0  0  0  0
   -3.4203    1.2582    3.3760 H   0  0  0  0  0  0  0  0  0  0  0  0
   -2.7295   -0.5800    1.7681 H   0  0  0  0  0  0  0  0  0  0  0  0
   -5.0975   -2.3977   -3.0442 H   0  0  0  0  0  0  0  0  0  0  0  0
   -2.3874   -2.6826   -2.7574 H   0  0  0  0  0  0  0  0  0  0  0  0
   -0.5999   -2.8531   -1.4351 H   0  0  0  0  0  0  0  0  0  0  0  0
    1.7041   -2.4286   -0.8336 H   0  0  0  0  0  0  0  0  0  0  0  0
    0.6980    1.6190    0.2668 H   0  0  0  0  0  0  0  0  0  0  0  0
   -1.6122    1.2353   -0.3838 H   0  0  0  0  0  0  0  0  0  0  0  0
    5.0795    2.5220    2.2577 H   0  0  0  0  0  0  0  0  0  0  0  0
    7.5127    1.9660    2.1732 H   0  0  0  0  0  0  0  0  0  0  0  0
    8.3055    0.0078    0.8930 H   0  0  0  0  0  0  0  0  0  0  0  0
    6.6944   -1.4489   -0.3368 H   0  0  0  0  0  0  0  0  0  0  0  0
    3.8469   -1.6137   -0.8404 H   0  0  0  0  0  0  0  0  0  0  0  0
  1  2  1  0
  2  3  1  0
  3  4  2  0
  4  5  1  0
  5  6  1  0
  6  7  1  0
  7  8  2  0
  8  9  1  0
  9 10  2  0
 10 11  1  0
 11 12  1  0
 12 13  2  0
 13 14  1  0
 14 15  2  0
 15 16  1  0
 16 17  2  0
 15 18  1  0
 18 19  2  0
 19 20  1  0
 20 21  2  0
 21 22  1  0
 22 23  2  0
 23 24  1  0
 24 25  2  0
 25 26  1  0
  6  2  2  0
 11  7  1  0
 17 12  1  0
 26 18  1  0
 25 20  1  0
  1 27  1  0
  1 28  1  0
  1 29  1  0
  4 30  1  0
  5 31  1  0
  9 32  1  0
 10 33  1  0
 13 34  1  0
 14 35  1  0
 16 36  1  0
 17 37  1  0
 21 38  1  0
 22 39  1  0
 23 40  1  0
 24 41  1  0
 26 42  1  0
M  END
>  <Unnamed: 0>  (183) 
1164

>  <ID>  (183) 
TRAIN_1164

>  <Canonical_Smiles>  (183) 
Cc1nc[nH]c1c2nccn2c3ccc(cc3)c4nc5ccccc5[nH]4

>  <Inhibition>  (183) 
70.5

>  <TDC_conf_true_inhibitor>  (183) 
1

>  <TDC_conf_non_inhibitor>  (183) 
0

>  <split>  (183) 
1

$$$$
183
     RDKit          3D

 58 61  0  0  0  0  0  0  0  0999 V2000
    2.1584   -0.6649   -3.7387 C   0  0  0  0  0  0  0  0  0  0  0  0
    1.9598   -1.4122   -2.4220 C   0  0  0  0  0  0  0  0  0  0  0  0
    0.5961   -1.3268   -1.7621 C   0  0  0  0  0  0  0  0  0  0  0  0
   -0.4921   -0.7482   -2.4481 C   0  0  0  0  0  0  0  0  0  0  0  0
   -1.7614   -0.6563   -1.8699 C   0  0  0  0  0  0  0  0  0  0  0  0
   -1.9691   -1.1420   -0.5828 C   0  0  0  0  0  0  0  0  0  0  0  0
   -0.9298   -1.7516    0.1144 C   0  0  0  0  0  0  0  0  0  0  0  0
    0.3507   -1.8360   -0.4630 C   0  0  0  0  0  0  0  0  0  0  0  0
    1.5913   -2.6411    0.5502 S   0  0  0  0  0  6  0  0  0  0  0  0
    2.7748   -2.9430   -0.2207 O   0  0  0  0  0  0  0  0  0  0  0  0
    0.9179   -3.6931    1.2852 O   0  0  0  0  0  0  0  0  0  0  0  0
    1.9450   -1.4500    1.6993 N   0  0  0  0  0  0  0  0  0  0  0  0
    2.8564   -0.4151    1.3463 C   0  0  0  0  0  0  0  0  0  0  0  0
    2.3455    0.7288    0.7286 C   0  0  0  0  0  0  0  0  0  0  0  0
    3.2016    1.7503    0.3168 C   0  0  0  0  0  0  0  0  0  0  0  0
    4.5808    1.6296    0.5041 C   0  0  0  0  0  0  0  0  0  0  0  0
    5.5073    2.7324    0.0830 C   0  0  0  0  0  0  0  0  0  0  0  0
    5.0857    0.4866    1.1397 C   0  0  0  0  0  0  0  0  0  0  0  0
    4.2341   -0.5444    1.5727 C   0  0  0  0  0  0  0  0  0  0  0  0
    4.8348   -1.7653    2.2110 C   0  0  0  0  0  0  0  0  0  0  0  0
   -3.3073   -1.0642    0.0424 C   0  0  0  0  0  0  0  0  0  0  0  0
   -3.9326   -2.1808    0.2517 N   0  0  0  0  0  0  0  0  0  0  0  0
   -5.1702   -2.0969    0.8082 N   0  0  0  0  0  0  0  0  0  0  0  0
   -5.8211   -0.9426    1.1505 C   0  0  0  0  0  0  0  0  0  0  0  0
   -6.9518   -0.9443    1.6270 O   0  0  0  0  0  0  0  0  0  0  0  0
   -5.0698    0.3206    0.9273 C   0  0  0  0  0  0  0  0  0  0  0  0
   -3.8340    0.2883    0.3975 C   0  0  0  0  0  0  0  0  0  0  0  0
   -3.0014    1.5303    0.2247 C   0  0  0  0  0  0  0  0  0  0  0  0
   -3.5459    2.7347    0.9994 C   0  0  0  0  0  0  0  0  0  0  0  0
   -5.0566    2.8512    0.8360 C   0  0  0  0  0  0  0  0  0  0  0  0
   -5.7618    1.5906    1.3407 C   0  0  0  0  0  0  0  0  0  0  0  0
    1.5167   -1.0662   -4.5304 H   0  0  0  0  0  0  0  0  0  0  0  0
    1.9485    0.4041   -3.6258 H   0  0  0  0  0  0  0  0  0  0  0  0
    3.1960   -0.7686   -4.0734 H   0  0  0  0  0  0  0  0  0  0  0  0
    2.1822   -2.4689   -2.6095 H   0  0  0  0  0  0  0  0  0  0  0  0
    2.7080   -1.0107   -1.7309 H   0  0  0  0  0  0  0  0  0  0  0  0
   -0.3780   -0.3624   -3.4590 H   0  0  0  0  0  0  0  0  0  0  0  0
   -2.5811   -0.2217   -2.4369 H   0  0  0  0  0  0  0  0  0  0  0  0
   -1.1197   -2.1612    1.1057 H   0  0  0  0  0  0  0  0  0  0  0  0
    2.0334   -1.8604    2.6276 H   0  0  0  0  0  0  0  0  0  0  0  0
    1.2766    0.8390    0.5716 H   0  0  0  0  0  0  0  0  0  0  0  0
    2.7854    2.6370   -0.1557 H   0  0  0  0  0  0  0  0  0  0  0  0
    6.4676    2.3267   -0.2527 H   0  0  0  0  0  0  0  0  0  0  0  0
    5.0859    3.3015   -0.7522 H   0  0  0  0  0  0  0  0  0  0  0  0
    5.6828    3.4139    0.9212 H   0  0  0  0  0  0  0  0  0  0  0  0
    6.1600    0.3953    1.2946 H   0  0  0  0  0  0  0  0  0  0  0  0
    5.8407   -1.5572    2.5917 H   0  0  0  0  0  0  0  0  0  0  0  0
    4.2385   -2.0967    3.0665 H   0  0  0  0  0  0  0  0  0  0  0  0
    4.9079   -2.5780    1.4829 H   0  0  0  0  0  0  0  0  0  0  0  0
   -5.6611   -2.9721    0.9584 H   0  0  0  0  0  0  0  0  0  0  0  0
   -1.9714    1.3568    0.5570 H   0  0  0  0  0  0  0  0  0  0  0  0
   -2.9668    1.7869   -0.8411 H   0  0  0  0  0  0  0  0  0  0  0  0
   -3.0573    3.6502    0.6470 H   0  0  0  0  0  0  0  0  0  0  0  0
   -3.2995    2.6310    2.0640 H   0  0  0  0  0  0  0  0  0  0  0  0
   -5.4291    3.7259    1.3811 H   0  0  0  0  0  0  0  0  0  0  0  0
   -5.2979    3.0091   -0.2231 H   0  0  0  0  0  0  0  0  0  0  0  0
   -6.7942    1.6025    0.9714 H   0  0  0  0  0  0  0  0  0  0  0  0
   -5.8091    1.6197    2.4368 H   0  0  0  0  0  0  0  0  0  0  0  0
  1  2  1  0
  2  3  1  0
  3  4  2  0
  4  5  1  0
  5  6  2  0
  6  7  1  0
  7  8  2  0
  8  9  1  0
  9 10  2  0
  9 11  2  0
  9 12  1  0
 12 13  1  0
 13 14  2  0
 14 15  1  0
 15 16  2  0
 16 17  1  0
 16 18  1  0
 18 19  2  0
 19 20  1  0
  6 21  1  0
 21 22  2  0
 22 23  1  0
 23 24  1  0
 24 25  2  0
 24 26  1  0
 26 27  2  0
 27 28  1  0
 28 29  1  0
 29 30  1  0
 30 31  1  0
  8  3  1  0
 19 13  1  0
 27 21  1  0
 31 26  1  0
  1 32  1  0
  1 33  1  0
  1 34  1  0
  2 35  1  0
  2 36  1  0
  4 37  1  0
  5 38  1  0
  7 39  1  0
 12 40  1  0
 14 41  1  0
 15 42  1  0
 17 43  1  0
 17 44  1  0
 17 45  1  0
 18 46  1  0
 20 47  1  0
 20 48  1  0
 20 49  1  0
 23 50  1  0
 28 51  1  0
 28 52  1  0
 29 53  1  0
 29 54  1  0
 30 55  1  0
 30 56  1  0
 31 57  1  0
 31 58  1  0
M  END
>  <Unnamed: 0>  (184) 
1177

>  <ID>  (184) 
TRAIN_1177

>  <Canonical_Smiles>  (184) 
CCc1ccc(cc1S(=O)(=O)Nc2ccc(C)cc2C)C3=NNC(=O)C4=C3CCCC4

>  <Inhibition>  (184) 
92.1

>  <TDC_conf_true_inhibitor>  (184) 
1

>  <TDC_conf_non_inhibitor>  (184) 
0

>  <split>  (184) 
1

$$$$
184
     RDKit          3D

 34 36  0  0  0  0  0  0  0  0999 V2000
    7.3001    1.2685    5.2593 O   0  0  0  0  0  0  0  0  0  0  0  0
    7.3464    0.3242    4.1992 C   0  0  0  0  0  0  0  0  0  0  0  0
    6.0139    0.1507    3.6257 C   0  0  0  0  0  0  0  0  0  0  0  0
    4.9203    0.0163    3.1476 C   0  0  0  0  0  0  0  0  0  0  0  0
    3.6230   -0.1371    2.5775 C   0  0  0  0  0  0  0  0  0  0  0  0
    2.7502   -1.1622    2.8682 C   0  0  0  0  0  0  0  0  0  0  0  0
    1.5256   -1.0490    2.1415 C   0  0  0  0  0  0  0  0  0  0  0  0
    1.5138    0.0614    1.3259 C   0  0  0  0  0  0  0  0  0  0  0  0
    2.9652    0.9518    1.4381 S   0  0  0  0  0  0  0  0  0  0  0  0
    0.3308    0.4798    0.4047 C   0  0  0  0  0  0  0  0  0  0  0  0
   -0.8599   -0.1919    0.2481 C   0  0  0  0  0  0  0  0  0  0  0  0
   -1.5420    0.5715   -0.6502 N   0  0  0  0  0  0  0  0  0  0  0  0
   -2.8587    0.3435   -1.1992 C   0  0  0  0  0  0  0  0  0  0  0  0
   -2.7896   -0.0024   -2.6757 C   0  0  0  0  0  0  0  0  0  0  0  0
   -4.1105   -0.2531   -3.2153 N   0  0  0  0  0  0  0  0  0  0  0  0
   -4.7833    0.5014   -4.1313 C   0  0  0  0  0  0  0  0  0  0  0  0
   -5.9919   -0.1258   -4.3231 C   0  0  0  0  0  0  0  0  0  0  0  0
   -5.9495   -1.2492   -3.4766 C   0  0  0  0  0  0  0  0  0  0  0  0
   -4.8043   -1.3272   -2.7934 N   0  0  0  0  0  0  0  0  0  0  0  0
   -0.8320    1.6477   -1.0279 N   0  0  0  0  0  0  0  0  0  0  0  0
    0.3284    1.5976   -0.3861 N   0  0  0  0  0  0  0  0  0  0  0  0
    6.8599    2.0617    4.9082 H   0  0  0  0  0  0  0  0  0  0  0  0
    8.0567    0.6833    3.4486 H   0  0  0  0  0  0  0  0  0  0  0  0
    7.7248   -0.6190    4.6023 H   0  0  0  0  0  0  0  0  0  0  0  0
    2.9728   -1.9567    3.5706 H   0  0  0  0  0  0  0  0  0  0  0  0
    0.7051   -1.7498    2.2284 H   0  0  0  0  0  0  0  0  0  0  0  0
   -1.2592   -1.1009    0.6723 H   0  0  0  0  0  0  0  0  0  0  0  0
   -3.4459    1.2538   -1.0276 H   0  0  0  0  0  0  0  0  0  0  0  0
   -3.3256   -0.4612   -0.6187 H   0  0  0  0  0  0  0  0  0  0  0  0
   -2.1931   -0.9053   -2.8495 H   0  0  0  0  0  0  0  0  0  0  0  0
   -2.3373    0.8089   -3.2575 H   0  0  0  0  0  0  0  0  0  0  0  0
   -4.3594    1.3982   -4.5631 H   0  0  0  0  0  0  0  0  0  0  0  0
   -6.7906    0.1819   -4.9827 H   0  0  0  0  0  0  0  0  0  0  0  0
   -6.7042   -2.0114   -3.3286 H   0  0  0  0  0  0  0  0  0  0  0  0
  1  2  1  0
  2  3  1  0
  3  4  3  0
  4  5  1  0
  5  6  2  0
  6  7  1  0
  7  8  2  0
  8  9  1  0
  8 10  1  0
 10 11  2  0
 11 12  1  0
 12 13  1  0
 13 14  1  0
 14 15  1  0
 15 16  1  0
 16 17  2  0
 17 18  1  0
 18 19  2  0
 12 20  1  0
 20 21  2  0
  9  5  1  0
 21 10  1  0
 19 15  1  0
  1 22  1  0
  2 23  1  0
  2 24  1  0
  6 25  1  0
  7 26  1  0
 11 27  1  0
 13 28  1  0
 13 29  1  0
 14 30  1  0
 14 31  1  0
 16 32  1  0
 17 33  1  0
 18 34  1  0
M  END
>  <Unnamed: 0>  (185) 
1185

>  <ID>  (185) 
TRAIN_1185

>  <Canonical_Smiles>  (185) 
OCC#Cc1ccc(s1)c2cn(CCn3cccn3)nn2

>  <Inhibition>  (185) 
45.0

>  <TDC_conf_true_inhibitor>  (185) 
0

>  <TDC_conf_non_inhibitor>  (185) 
1

>  <split>  (185) 
1

$$$$
185
     RDKit          3D

 33 35  0  0  0  0  0  0  0  0999 V2000
    2.1359    2.8118    0.7127 C   0  0  0  0  0  0  0  0  0  0  0  0
    1.8431    1.3985    0.2627 C   0  0  0  0  0  0  0  0  0  0  0  0
    2.8287    0.7554   -0.3005 N   0  0  0  0  0  0  0  0  0  0  0  0
    2.5856   -0.5206   -0.7143 C   0  0  0  0  0  0  0  0  0  0  0  0
    3.3850   -1.4608   -1.3247 C   0  0  0  0  0  0  0  0  0  0  0  0
    2.5699   -2.5843   -1.5003 C   0  0  0  0  0  0  0  0  0  0  0  0
    1.3325   -2.3953   -1.0407 N   0  0  0  0  0  0  0  0  0  0  0  0
    1.3341   -1.1231   -0.5568 N   0  0  0  0  0  0  0  0  0  0  0  0
    0.2690   -0.4348    0.0424 C   0  0  0  0  0  0  0  0  0  0  0  0
   -1.0463   -1.1675    0.1504 C   0  0  0  0  0  0  0  0  0  0  0  0
   -2.2623   -0.2356    0.3309 C   0  0  0  0  0  0  0  0  0  0  0  0
   -2.6127    0.4682   -0.9972 C   0  0  0  0  0  0  0  0  0  0  0  0
   -3.4805   -1.0716    0.7631 C   0  0  0  0  0  0  0  0  0  0  0  0
   -1.9468    0.7988    1.4189 C   0  0  0  0  0  0  0  0  0  0  0  0
   -0.6535    1.5458    1.1608 C   0  0  0  0  0  0  0  0  0  0  0  0
   -0.5227    2.7019    1.5555 O   0  0  0  0  0  0  0  0  0  0  0  0
    0.4631    0.8267    0.4844 C   0  0  0  0  0  0  0  0  0  0  0  0
    4.7498   -1.3136   -1.6943 C   0  0  0  0  0  0  0  0  0  0  0  0
    5.8635   -1.2386   -2.0132 N   0  0  0  0  0  0  0  0  0  0  0  0
    3.1689    3.0809    0.4697 H   0  0  0  0  0  0  0  0  0  0  0  0
    2.0109    2.8922    1.7957 H   0  0  0  0  0  0  0  0  0  0  0  0
    1.4738    3.5129    0.1976 H   0  0  0  0  0  0  0  0  0  0  0  0
    2.8224   -3.5396   -1.9449 H   0  0  0  0  0  0  0  0  0  0  0  0
   -1.2149   -1.7840   -0.7423 H   0  0  0  0  0  0  0  0  0  0  0  0
   -0.9731   -1.8602    0.9999 H   0  0  0  0  0  0  0  0  0  0  0  0
   -3.4798    1.1272   -0.8743 H   0  0  0  0  0  0  0  0  0  0  0  0
   -2.8621   -0.2635   -1.7742 H   0  0  0  0  0  0  0  0  0  0  0  0
   -1.7878    1.0793   -1.3768 H   0  0  0  0  0  0  0  0  0  0  0  0
   -3.7256   -1.8308    0.0119 H   0  0  0  0  0  0  0  0  0  0  0  0
   -4.3649   -0.4394    0.9017 H   0  0  0  0  0  0  0  0  0  0  0  0
   -3.2918   -1.5896    1.7101 H   0  0  0  0  0  0  0  0  0  0  0  0
   -1.8525    0.3200    2.4016 H   0  0  0  0  0  0  0  0  0  0  0  0
   -2.7588    1.5335    1.4845 H   0  0  0  0  0  0  0  0  0  0  0  0
  1  2  1  0
  2  3  2  0
  3  4  1  0
  4  5  2  0
  5  6  1  0
  6  7  2  0
  7  8  1  0
  8  9  1  0
  9 10  1  0
 10 11  1  0
 11 12  1  0
 11 13  1  0
 11 14  1  0
 14 15  1  0
 15 16  2  0
 15 17  1  0
  5 18  1  0
 18 19  3  0
 17  2  1  0
  8  4  1  0
 17  9  2  0
  1 20  1  0
  1 21  1  0
  1 22  1  0
  6 23  1  0
 10 24  1  0
 10 25  1  0
 12 26  1  0
 12 27  1  0
 12 28  1  0
 13 29  1  0
 13 30  1  0
 13 31  1  0
 14 32  1  0
 14 33  1  0
M  END
>  <Unnamed: 0>  (186) 
1191

>  <ID>  (186) 
TRAIN_1191

>  <Canonical_Smiles>  (186) 
Cc1nc2c(cnn2c3CC(C)(C)CC(=O)c13)C#N

>  <Inhibition>  (186) 
29.5

>  <TDC_conf_true_inhibitor>  (186) 
0

>  <TDC_conf_non_inhibitor>  (186) 
1

>  <split>  (186) 
1

$$$$
186
     RDKit          3D

 39 42  0  0  0  0  0  0  0  0999 V2000
    4.9118   -1.7572   -0.9088 F   0  0  0  0  0  0  0  0  0  0  0  0
    5.0735   -0.8275    0.0433 C   0  0  0  0  0  0  0  0  0  0  0  0
    5.8933   -1.1181    1.1325 C   0  0  0  0  0  0  0  0  0  0  0  0
    6.0797   -0.1659    2.1334 C   0  0  0  0  0  0  0  0  0  0  0  0
    5.4441    1.0704    2.0340 C   0  0  0  0  0  0  0  0  0  0  0  0
    4.6300    1.3428    0.9367 C   0  0  0  0  0  0  0  0  0  0  0  0
    4.0263    2.5365    0.8595 F   0  0  0  0  0  0  0  0  0  0  0  0
    4.4324    0.4049   -0.0764 C   0  0  0  0  0  0  0  0  0  0  0  0
    3.5291    0.6990   -1.2350 C   0  0  0  0  0  0  0  0  0  0  0  0
    2.1477    0.3835   -0.9224 N   0  0  0  0  0  0  0  0  0  0  0  0
    1.2209    1.1781   -0.3192 C   0  0  0  0  0  0  0  0  0  0  0  0
    0.0688    0.4138   -0.2997 C   0  0  0  0  0  0  0  0  0  0  0  0
    0.3549   -0.8061   -0.8667 N   0  0  0  0  0  0  0  0  0  0  0  0
    1.6181   -0.8020   -1.2702 N   0  0  0  0  0  0  0  0  0  0  0  0
   -1.2050    0.8026    0.3062 C   0  0  0  0  0  0  0  0  0  0  0  0
   -1.2182    1.6822    1.1710 O   0  0  0  0  0  0  0  0  0  0  0  0
   -2.3976    0.1737   -0.0885 N   0  0  0  0  0  0  0  0  0  0  0  0
   -2.4827   -0.8802   -1.1192 C   0  0  0  0  0  0  0  0  0  0  0  0
   -3.8179   -0.8885   -1.8801 C   0  0  0  0  0  0  0  0  0  0  0  0
   -4.9402   -0.7552   -0.9138 C   0  0  0  0  0  0  0  0  0  0  0  0
   -6.5263   -1.2469   -1.2652 S   0  0  0  0  0  0  0  0  0  0  0  0
   -7.0754   -0.7239    0.2691 C   0  0  0  0  0  0  0  0  0  0  0  0
   -6.0572   -0.1861    1.0278 C   0  0  0  0  0  0  0  0  0  0  0  0
   -4.8024   -0.2014    0.3406 C   0  0  0  0  0  0  0  0  0  0  0  0
   -3.4959    0.2923    0.8805 C   0  0  0  0  0  0  0  0  0  0  0  0
    6.3757   -2.0890    1.1944 H   0  0  0  0  0  0  0  0  0  0  0  0
    6.7137   -0.3887    2.9882 H   0  0  0  0  0  0  0  0  0  0  0  0
    5.5745    1.8235    2.8060 H   0  0  0  0  0  0  0  0  0  0  0  0
    3.5743    1.7592   -1.5107 H   0  0  0  0  0  0  0  0  0  0  0  0
    3.8167    0.1281   -2.1255 H   0  0  0  0  0  0  0  0  0  0  0  0
    1.4374    2.1715    0.0466 H   0  0  0  0  0  0  0  0  0  0  0  0
   -1.6997   -0.7470   -1.8679 H   0  0  0  0  0  0  0  0  0  0  0  0
   -2.3206   -1.8384   -0.6114 H   0  0  0  0  0  0  0  0  0  0  0  0
   -3.8470   -0.0372   -2.5713 H   0  0  0  0  0  0  0  0  0  0  0  0
   -3.8968   -1.8053   -2.4744 H   0  0  0  0  0  0  0  0  0  0  0  0
   -8.1163   -0.8351    0.5396 H   0  0  0  0  0  0  0  0  0  0  0  0
   -6.2064    0.1991    2.0293 H   0  0  0  0  0  0  0  0  0  0  0  0
   -3.2188   -0.2999    1.7609 H   0  0  0  0  0  0  0  0  0  0  0  0
   -3.5986    1.3383    1.1911 H   0  0  0  0  0  0  0  0  0  0  0  0
  1  2  1  0
  2  3  2  0
  3  4  1  0
  4  5  2  0
  5  6  1  0
  6  7  1  0
  6  8  2  0
  8  9  1  0
  9 10  1  0
 10 11  1  0
 11 12  2  0
 12 13  1  0
 13 14  2  0
 12 15  1  0
 15 16  2  0
 15 17  1  0
 17 18  1  0
 18 19  1  0
 19 20  1  0
 20 21  1  0
 21 22  1  0
 22 23  2  0
 23 24  1  0
 24 25  1  0
  8  2  1  0
 14 10  1  0
 25 17  1  0
 24 20  2  0
  3 26  1  0
  4 27  1  0
  5 28  1  0
  9 29  1  0
  9 30  1  0
 11 31  1  0
 18 32  1  0
 18 33  1  0
 19 34  1  0
 19 35  1  0
 22 36  1  0
 23 37  1  0
 25 38  1  0
 25 39  1  0
M  END
>  <Unnamed: 0>  (187) 
1202

>  <ID>  (187) 
TRAIN_1202

>  <Canonical_Smiles>  (187) 
Fc1cccc(F)c1Cn2cc(nn2)C(=O)N3CCc4sccc4C3

>  <Inhibition>  (187) 
0.5

>  <TDC_conf_true_inhibitor>  (187) 
0

>  <TDC_conf_non_inhibitor>  (187) 
1

>  <split>  (187) 
1

$$$$
187
     RDKit          3D

 48 51  0  0  0  0  0  0  0  0999 V2000
    0.2158    2.5223   -2.4379 O   0  0  0  0  0  0  0  0  0  0  0  0
    0.2007    1.1026   -2.2993 C   0  0  0  0  0  0  0  0  0  0  0  0
    1.5850    0.5998   -1.9282 C   0  0  0  0  0  0  0  0  0  0  0  0
    1.6454    0.8500   -0.4134 C   0  0  0  0  0  0  0  0  0  0  0  0
    0.2642    0.6947    0.0441 N   0  0  0  0  0  0  0  0  0  0  0  0
   -0.6515    0.7007   -1.0919 C   0  0  0  0  0  0  0  0  0  0  0  0
   -0.0793    1.0569    1.3340 C   0  0  0  0  0  0  0  0  0  0  0  0
    0.7356    1.6143    2.0781 O   0  0  0  0  0  0  0  0  0  0  0  0
   -1.5270    0.8672    1.8315 C   0  0  0  0  0  0  0  0  0  0  0  0
   -2.3121   -0.2116    1.2421 N   0  0  0  0  0  0  0  0  0  0  0  0
   -1.9084   -1.5064    1.5529 C   0  0  0  0  0  0  0  0  0  0  0  0
   -0.9245   -1.8189    2.2105 O   0  0  0  0  0  0  0  0  0  0  0  0
   -2.7513   -2.6238    1.0078 C   0  0  0  0  0  0  0  0  0  0  0  0
   -3.8371   -2.4541    0.3269 N   0  0  0  0  0  0  0  0  0  0  0  0
   -4.2620   -1.1350    0.1006 C   0  0  0  0  0  0  0  0  0  0  0  0
   -5.4631   -0.9700   -0.5989 C   0  0  0  0  0  0  0  0  0  0  0  0
   -5.9626    0.3004   -0.8707 C   0  0  0  0  0  0  0  0  0  0  0  0
   -5.2580    1.4191   -0.4433 C   0  0  0  0  0  0  0  0  0  0  0  0
   -4.0559    1.2705    0.2572 C   0  0  0  0  0  0  0  0  0  0  0  0
   -3.5405   -0.0035    0.5412 C   0  0  0  0  0  0  0  0  0  0  0  0
    2.6357   -0.0916    0.2455 C   0  0  0  0  0  0  0  0  0  0  0  0
    2.3027   -1.4186    0.5559 C   0  0  0  0  0  0  0  0  0  0  0  0
    3.2370   -2.2697    1.1462 C   0  0  0  0  0  0  0  0  0  0  0  0
    4.5218   -1.8091    1.4288 C   0  0  0  0  0  0  0  0  0  0  0  0
    4.8874   -0.4911    1.1207 C   0  0  0  0  0  0  0  0  0  0  0  0
    3.9349    0.3590    0.5331 C   0  0  0  0  0  0  0  0  0  0  0  0
    6.2700    0.0112    1.4535 C   0  0  0  0  0  0  0  0  0  0  0  0
    6.4005    0.3636    2.7618 F   0  0  0  0  0  0  0  0  0  0  0  0
    6.6336    1.1092    0.7313 F   0  0  0  0  0  0  0  0  0  0  0  0
    7.2403   -0.9178    1.2190 F   0  0  0  0  0  0  0  0  0  0  0  0
    0.7642    2.7369   -3.2129 H   0  0  0  0  0  0  0  0  0  0  0  0
   -0.1809    0.6754   -3.2312 H   0  0  0  0  0  0  0  0  0  0  0  0
    2.3933    1.1215   -2.4511 H   0  0  0  0  0  0  0  0  0  0  0  0
    1.6564   -0.4704   -2.1598 H   0  0  0  0  0  0  0  0  0  0  0  0
    1.9310    1.8929   -0.2186 H   0  0  0  0  0  0  0  0  0  0  0  0
   -1.4670    1.4062   -0.9239 H   0  0  0  0  0  0  0  0  0  0  0  0
   -1.0274   -0.3196   -1.2132 H   0  0  0  0  0  0  0  0  0  0  0  0
   -1.4530    0.6459    2.9049 H   0  0  0  0  0  0  0  0  0  0  0  0
   -2.0174    1.8375    1.7532 H   0  0  0  0  0  0  0  0  0  0  0  0
   -2.3752   -3.6356    1.2257 H   0  0  0  0  0  0  0  0  0  0  0  0
   -6.0113   -1.8486   -0.9309 H   0  0  0  0  0  0  0  0  0  0  0  0
   -6.8975    0.4138   -1.4135 H   0  0  0  0  0  0  0  0  0  0  0  0
   -5.6425    2.4145   -0.6549 H   0  0  0  0  0  0  0  0  0  0  0  0
   -3.5523    2.1842    0.5511 H   0  0  0  0  0  0  0  0  0  0  0  0
    1.3016   -1.7951    0.3586 H   0  0  0  0  0  0  0  0  0  0  0  0
    2.9560   -3.2896    1.3975 H   0  0  0  0  0  0  0  0  0  0  0  0
    5.2380   -2.4809    1.8992 H   0  0  0  0  0  0  0  0  0  0  0  0
    4.2068    1.3908    0.3094 H   0  0  0  0  0  0  0  0  0  0  0  0
  1  2  1  0
  2  3  1  0
  3  4  1  0
  4  5  1  0
  5  6  1  0
  5  7  1  0
  7  8  2  0
  7  9  1  0
  9 10  1  0
 10 11  1  0
 11 12  2  0
 11 13  1  0
 13 14  2  0
 14 15  1  0
 15 16  2  0
 16 17  1  0
 17 18  2  0
 18 19  1  0
 19 20  2  0
  4 21  1  0
 21 22  2  0
 22 23  1  0
 23 24  2  0
 24 25  1  0
 25 26  2  0
 25 27  1  0
 27 28  1  0
 27 29  1  0
 27 30  1  0
  6  2  1  0
 20 10  1  0
 20 15  1  0
 26 21  1  0
  1 31  1  0
  2 32  1  0
  3 33  1  0
  3 34  1  0
  4 35  1  0
  6 36  1  0
  6 37  1  0
  9 38  1  0
  9 39  1  0
 13 40  1  0
 16 41  1  0
 17 42  1  0
 18 43  1  0
 19 44  1  0
 22 45  1  0
 23 46  1  0
 24 47  1  0
 26 48  1  0
M  END
>  <Unnamed: 0>  (188) 
1204

>  <ID>  (188) 
TRAIN_1204

>  <Canonical_Smiles>  (188) 
OC1CC(N(C1)C(=O)CN2C(=O)C=Nc3ccccc23)c4cccc(c4)C(F)(F)F

>  <Inhibition>  (188) 
29.2

>  <TDC_conf_true_inhibitor>  (188) 
1

>  <TDC_conf_non_inhibitor>  (188) 
0

>  <split>  (188) 
1

$$$$
188
     RDKit          3D

 56 59  0  0  0  0  0  0  0  0999 V2000
   -1.9041    4.1619    1.9675 C   0  0  0  0  0  0  0  0  0  0  0  0
   -2.8112    3.0997    1.7072 O   0  0  0  0  0  0  0  0  0  0  0  0
   -2.3385    2.0220    0.9997 C   0  0  0  0  0  0  0  0  0  0  0  0
   -1.0003    1.8403    0.6414 C   0  0  0  0  0  0  0  0  0  0  0  0
   -0.6071    0.7118   -0.0828 C   0  0  0  0  0  0  0  0  0  0  0  0
   -1.5403   -0.2558   -0.4732 C   0  0  0  0  0  0  0  0  0  0  0  0
   -2.8827   -0.0785   -0.0909 C   0  0  0  0  0  0  0  0  0  0  0  0
   -3.2877    1.0452    0.6420 C   0  0  0  0  0  0  0  0  0  0  0  0
   -4.5821    1.2831    1.0382 O   0  0  0  0  0  0  0  0  0  0  0  0
   -5.5213    0.2294    0.8700 C   0  0  0  0  0  0  0  0  0  0  0  0
   -1.1450   -1.4978   -1.2746 C   0  0  0  0  0  0  0  0  0  0  0  0
   -0.2883   -1.1720   -2.5117 C   0  0  0  0  0  0  0  0  0  0  0  0
   -1.1199   -0.4718   -3.5635 C   0  0  0  0  0  0  0  0  0  0  0  0
   -1.8092   -1.0705   -4.3826 O   0  0  0  0  0  0  0  0  0  0  0  0
   -1.0915    0.8903   -3.5396 N   0  0  0  0  0  0  0  0  0  0  0  0
   -0.5839   -2.5613   -0.3728 C   0  0  0  0  0  0  0  0  0  0  0  0
    0.6367   -3.0391   -0.0501 C   0  0  0  0  0  0  0  0  0  0  0  0
    1.9936   -2.5643   -0.4994 C   0  0  0  0  0  0  0  0  0  0  0  0
    2.4972   -1.2980    0.1670 C   0  0  0  0  0  0  0  0  0  0  0  0
    2.1903   -0.9815    1.5123 C   0  0  0  0  0  0  0  0  0  0  0  0
    2.6581    0.1952    2.1054 C   0  0  0  0  0  0  0  0  0  0  0  0
    3.4562    1.0252    1.3495 C   0  0  0  0  0  0  0  0  0  0  0  0
    3.9722    2.2156    1.7904 O   0  0  0  0  0  0  0  0  0  0  0  0
    4.9564    2.5507    0.7841 C   0  0  0  0  0  0  0  0  0  0  0  0
    4.6039    1.8291   -0.5179 C   0  0  0  0  0  0  0  0  0  0  0  0
    3.7947    0.7227    0.0417 C   0  0  0  0  0  0  0  0  0  0  0  0
    3.3289   -0.4306   -0.5669 C   0  0  0  0  0  0  0  0  0  0  0  0
    0.5665   -4.1185    0.8320 N   0  0  0  0  0  0  0  0  0  0  0  0
   -0.7594   -4.2194    1.2363 N   0  0  0  0  0  0  0  0  0  0  0  0
   -1.5246   -3.4215    0.4049 C   0  0  0  0  0  0  0  0  0  0  0  0
   -2.7371   -3.4386    0.2960 O   0  0  0  0  0  0  0  0  0  0  0  0
   -1.5057    4.5798    1.0378 H   0  0  0  0  0  0  0  0  0  0  0  0
   -2.4557    4.9567    2.4777 H   0  0  0  0  0  0  0  0  0  0  0  0
   -1.0993    3.8377    2.6337 H   0  0  0  0  0  0  0  0  0  0  0  0
   -0.2302    2.5529    0.9213 H   0  0  0  0  0  0  0  0  0  0  0  0
    0.4445    0.6093   -0.3329 H   0  0  0  0  0  0  0  0  0  0  0  0
   -3.6036   -0.8417   -0.3777 H   0  0  0  0  0  0  0  0  0  0  0  0
   -5.7073    0.0354   -0.1912 H   0  0  0  0  0  0  0  0  0  0  0  0
   -6.4661    0.5522    1.3181 H   0  0  0  0  0  0  0  0  0  0  0  0
   -5.2002   -0.6795    1.3893 H   0  0  0  0  0  0  0  0  0  0  0  0
   -2.0750   -1.9137   -1.6899 H   0  0  0  0  0  0  0  0  0  0  0  0
    0.0846   -2.0938   -2.9764 H   0  0  0  0  0  0  0  0  0  0  0  0
    0.5894   -0.5596   -2.2798 H   0  0  0  0  0  0  0  0  0  0  0  0
   -1.7577    1.3347   -4.1599 H   0  0  0  0  0  0  0  0  0  0  0  0
   -0.9122    1.3762   -2.6740 H   0  0  0  0  0  0  0  0  0  0  0  0
    2.7367   -3.3516   -0.3133 H   0  0  0  0  0  0  0  0  0  0  0  0
    1.9807   -2.4309   -1.5873 H   0  0  0  0  0  0  0  0  0  0  0  0
    1.5609   -1.6372    2.1091 H   0  0  0  0  0  0  0  0  0  0  0  0
    2.4007    0.4488    3.1274 H   0  0  0  0  0  0  0  0  0  0  0  0
    5.9381    2.2341    1.1595 H   0  0  0  0  0  0  0  0  0  0  0  0
    4.9812    3.6375    0.6490 H   0  0  0  0  0  0  0  0  0  0  0  0
    5.4969    1.5010   -1.0576 H   0  0  0  0  0  0  0  0  0  0  0  0
    3.9841    2.4621   -1.1631 H   0  0  0  0  0  0  0  0  0  0  0  0
    3.5950   -0.6491   -1.5975 H   0  0  0  0  0  0  0  0  0  0  0  0
    1.2401   -4.0488    1.5984 H   0  0  0  0  0  0  0  0  0  0  0  0
   -1.1401   -5.1155    1.5197 H   0  0  0  0  0  0  0  0  0  0  0  0
  1  2  1  0
  2  3  1  0
  3  4  2  0
  4  5  1  0
  5  6  2  0
  6  7  1  0
  7  8  2  0
  8  9  1  0
  9 10  1  0
  6 11  1  0
 11 12  1  0
 12 13  1  0
 13 14  2  0
 13 15  1  0
 11 16  1  0
 16 17  2  0
 17 18  1  0
 18 19  1  0
 19 20  2  0
 20 21  1  0
 21 22  2  0
 22 23  1  0
 23 24  1  0
 24 25  1  0
 25 26  1  0
 26 27  2  0
 17 28  1  0
 28 29  1  0
 29 30  1  0
 30 31  2  0
  8  3  1  0
 30 16  1  0
 27 19  1  0
 26 22  1  0
  1 32  1  0
  1 33  1  0
  1 34  1  0
  4 35  1  0
  5 36  1  0
  7 37  1  0
 10 38  1  0
 10 39  1  0
 10 40  1  0
 11 41  1  0
 12 42  1  0
 12 43  1  0
 15 44  1  0
 15 45  1  0
 18 46  1  0
 18 47  1  0
 20 48  1  0
 21 49  1  0
 24 50  1  0
 24 51  1  0
 25 52  1  0
 25 53  1  0
 27 54  1  0
 28 55  1  0
 29 56  1  0
M  END
>  <Unnamed: 0>  (189) 
1209

>  <ID>  (189) 
TRAIN_1209

>  <Canonical_Smiles>  (189) 
COc1ccc(cc1OC)C(CC(=O)N)C2=C(Cc3ccc4OCCc4c3)NNC2=O

>  <Inhibition>  (189) 
28.8

>  <TDC_conf_true_inhibitor>  (189) 
1

>  <TDC_conf_non_inhibitor>  (189) 
0

>  <split>  (189) 
1

$$$$
189
     RDKit          3D

 38 39  0  0  0  0  0  0  0  0999 V2000
   -4.5541   -0.2691   -0.8536 C   0  0  0  0  0  0  0  0  0  0  0  0
   -3.8995   -0.4377    0.5220 C   0  0  0  0  0  0  0  0  0  0  0  0
   -4.4294    0.5784    1.5398 C   0  0  0  0  0  0  0  0  0  0  0  0
   -4.2051   -1.8523    1.0389 C   0  0  0  0  0  0  0  0  0  0  0  0
   -2.4512   -0.3873    0.4287 O   0  0  0  0  0  0  0  0  0  0  0  0
   -1.8162    0.7352   -0.0020 C   0  0  0  0  0  0  0  0  0  0  0  0
   -2.3843    1.7607   -0.3353 O   0  0  0  0  0  0  0  0  0  0  0  0
   -0.4756    0.4710    0.0217 N   0  0  0  0  0  0  0  0  0  0  0  0
    0.5600    1.3109   -0.3333 C   0  0  0  0  0  0  0  0  0  0  0  0
    0.2887    2.8966   -0.8942 S   0  0  0  0  0  0  0  0  0  0  0  0
    1.9725    3.1155   -1.0767 C   0  0  0  0  0  0  0  0  0  0  0  0
    2.7255    2.0912   -0.7476 N   0  0  0  0  0  0  0  0  0  0  0  0
    1.9228    1.0436   -0.3078 C   0  0  0  0  0  0  0  0  0  0  0  0
    2.5983   -0.2325    0.1143 C   0  0  0  0  0  0  0  0  0  0  0  0
    3.8021   -0.0025    1.0464 C   0  0  0  0  0  0  0  0  0  0  0  0
    5.0298   -0.3066    0.1992 C   0  0  0  0  0  0  0  0  0  0  0  0
    4.5582   -1.4393   -0.6943 C   0  0  0  0  0  0  0  0  0  0  0  0
    3.1500   -1.0168   -1.0907 C   0  0  0  0  0  0  0  0  0  0  0  0
   -4.0978   -0.9441   -1.5864 H   0  0  0  0  0  0  0  0  0  0  0  0
   -4.4326    0.7457   -1.2438 H   0  0  0  0  0  0  0  0  0  0  0  0
   -5.6289   -0.4760   -0.8112 H   0  0  0  0  0  0  0  0  0  0  0  0
   -5.4962    0.4260    1.7361 H   0  0  0  0  0  0  0  0  0  0  0  0
   -4.3057    1.6086    1.1930 H   0  0  0  0  0  0  0  0  0  0  0  0
   -3.8856    0.4986    2.4878 H   0  0  0  0  0  0  0  0  0  0  0  0
   -3.7217   -2.0261    2.0074 H   0  0  0  0  0  0  0  0  0  0  0  0
   -3.8077   -2.6113    0.3548 H   0  0  0  0  0  0  0  0  0  0  0  0
   -5.2810   -2.0202    1.1543 H   0  0  0  0  0  0  0  0  0  0  0  0
   -0.2497   -0.4596    0.3390 H   0  0  0  0  0  0  0  0  0  0  0  0
    2.3882    4.0448   -1.4430 H   0  0  0  0  0  0  0  0  0  0  0  0
    1.8773   -0.8600    0.6522 H   0  0  0  0  0  0  0  0  0  0  0  0
    3.8447    0.9994    1.4856 H   0  0  0  0  0  0  0  0  0  0  0  0
    3.7559   -0.7194    1.8763 H   0  0  0  0  0  0  0  0  0  0  0  0
    5.8939   -0.5882    0.8076 H   0  0  0  0  0  0  0  0  0  0  0  0
    5.3032    0.5672   -0.4038 H   0  0  0  0  0  0  0  0  0  0  0  0
    4.5251   -2.3791   -0.1304 H   0  0  0  0  0  0  0  0  0  0  0  0
    5.2074   -1.5850   -1.5624 H   0  0  0  0  0  0  0  0  0  0  0  0
    3.1933   -0.3954   -1.9940 H   0  0  0  0  0  0  0  0  0  0  0  0
    2.5254   -1.8850   -1.3270 H   0  0  0  0  0  0  0  0  0  0  0  0
  1  2  1  0
  2  3  1  0
  2  4  1  0
  2  5  1  0
  5  6  1  0
  6  7  2  0
  6  8  1  0
  8  9  1  0
  9 10  1  0
 10 11  1  0
 11 12  2  0
 12 13  1  0
 13 14  1  0
 14 15  1  0
 15 16  1  0
 16 17  1  0
 17 18  1  0
 13  9  2  0
 18 14  1  0
  1 19  1  0
  1 20  1  0
  1 21  1  0
  3 22  1  0
  3 23  1  0
  3 24  1  0
  4 25  1  0
  4 26  1  0
  4 27  1  0
  8 28  1  0
 11 29  1  0
 14 30  1  0
 15 31  1  0
 15 32  1  0
 16 33  1  0
 16 34  1  0
 17 35  1  0
 17 36  1  0
 18 37  1  0
 18 38  1  0
M  END
>  <Unnamed: 0>  (190) 
1220

>  <ID>  (190) 
TRAIN_1220

>  <Canonical_Smiles>  (190) 
CC(C)(C)OC(=O)Nc1scnc1C2CCCC2

>  <Inhibition>  (190) 
26.4

>  <TDC_conf_true_inhibitor>  (190) 
1

>  <TDC_conf_non_inhibitor>  (190) 
0

>  <split>  (190) 
1

$$$$
190
     RDKit          3D

 36 39  0  0  0  0  0  0  0  0999 V2000
   -2.7216    0.5155    2.7366 C   0  0  0  0  0  0  0  0  0  0  0  0
   -3.2944    0.1337    1.3908 C   0  0  0  0  0  0  0  0  0  0  0  0
   -4.5778   -0.0630    1.3045 N   0  0  0  0  0  0  0  0  0  0  0  0
   -5.0192   -0.4026    0.0707 C   0  0  0  0  0  0  0  0  0  0  0  0
   -6.6647   -0.7465   -0.2279 S   0  0  0  0  0  0  0  0  0  0  0  0
   -6.3695   -1.0307   -1.8911 C   0  0  0  0  0  0  0  0  0  0  0  0
   -5.0400   -0.8675   -2.2130 C   0  0  0  0  0  0  0  0  0  0  0  0
   -4.2610   -0.5099   -1.0715 C   0  0  0  0  0  0  0  0  0  0  0  0
   -2.8367   -0.2463   -0.9861 C   0  0  0  0  0  0  0  0  0  0  0  0
   -2.1391   -0.2317   -1.9985 O   0  0  0  0  0  0  0  0  0  0  0  0
   -2.3882    0.0039    0.3300 N   0  0  0  0  0  0  0  0  0  0  0  0
   -1.0591    0.3183    0.6095 N   0  0  0  0  0  0  0  0  0  0  0  0
   -0.1248   -0.2372   -0.0932 C   0  0  0  0  0  0  0  0  0  0  0  0
    1.3060    0.0910    0.1119 C   0  0  0  0  0  0  0  0  0  0  0  0
    2.2112   -0.5183   -0.6613 C   0  0  0  0  0  0  0  0  0  0  0  0
    3.6090   -0.1666   -0.4518 C   0  0  0  0  0  0  0  0  0  0  0  0
    4.6087   -0.6925   -1.2786 C   0  0  0  0  0  0  0  0  0  0  0  0
    5.9483   -0.3630   -1.0598 C   0  0  0  0  0  0  0  0  0  0  0  0
    6.2955    0.4885   -0.0124 C   0  0  0  0  0  0  0  0  0  0  0  0
    5.3031    1.0129    0.8155 C   0  0  0  0  0  0  0  0  0  0  0  0
    3.9630    0.6917    0.5938 C   0  0  0  0  0  0  0  0  0  0  0  0
    3.0631    1.2409    1.4639 O   0  0  0  0  0  0  0  0  0  0  0  0
    1.6645    1.0954    1.1636 C   0  0  0  0  0  0  0  0  0  0  0  0
   -3.5133    0.5498    3.4909 H   0  0  0  0  0  0  0  0  0  0  0  0
   -2.2556    1.5033    2.6759 H   0  0  0  0  0  0  0  0  0  0  0  0
   -1.9752   -0.2209    3.0485 H   0  0  0  0  0  0  0  0  0  0  0  0
   -7.1848   -1.3001   -2.5488 H   0  0  0  0  0  0  0  0  0  0  0  0
   -4.6420   -0.9963   -3.2129 H   0  0  0  0  0  0  0  0  0  0  0  0
   -0.3227   -1.0105   -0.8554 H   0  0  0  0  0  0  0  0  0  0  0  0
    1.9565   -1.2377   -1.4311 H   0  0  0  0  0  0  0  0  0  0  0  0
    4.3567   -1.3615   -2.0977 H   0  0  0  0  0  0  0  0  0  0  0  0
    6.7212   -0.7730   -1.7052 H   0  0  0  0  0  0  0  0  0  0  0  0
    7.3378    0.7433    0.1613 H   0  0  0  0  0  0  0  0  0  0  0  0
    5.5725    1.6742    1.6347 H   0  0  0  0  0  0  0  0  0  0  0  0
    1.1798    0.8286    2.1097 H   0  0  0  0  0  0  0  0  0  0  0  0
    1.2929    2.0844    0.8713 H   0  0  0  0  0  0  0  0  0  0  0  0
  1  2  1  0
  2  3  2  0
  3  4  1  0
  4  5  1  0
  5  6  1  0
  6  7  2  0
  7  8  1  0
  8  9  1  0
  9 10  2  0
  9 11  1  0
 11 12  1  0
 12 13  2  0
 13 14  1  0
 14 15  2  0
 15 16  1  0
 16 17  2  0
 17 18  1  0
 18 19  2  0
 19 20  1  0
 20 21  2  0
 21 22  1  0
 22 23  1  0
 11  2  1  0
  8  4  2  0
 23 14  1  0
 21 16  1  0
  1 24  1  0
  1 25  1  0
  1 26  1  0
  6 27  1  0
  7 28  1  0
 13 29  1  0
 15 30  1  0
 17 31  1  0
 18 32  1  0
 19 33  1  0
 20 34  1  0
 23 35  1  0
 23 36  1  0
M  END
>  <Unnamed: 0>  (191) 
1230

>  <ID>  (191) 
TRAIN_1230

>  <Canonical_Smiles>  (191) 
CC1=Nc2sccc2C(=O)N1\N=C\C3=Cc4ccccc4OC3

>  <Inhibition>  (191) 
37.3

>  <TDC_conf_true_inhibitor>  (191) 
0

>  <TDC_conf_non_inhibitor>  (191) 
1

>  <split>  (191) 
1

$$$$
191
     RDKit          3D

 46 49  0  0  0  0  0  0  0  0999 V2000
    0.4974   -0.1075   -1.7043 O   0  0  0  0  0  0  0  0  0  0  0  0
    1.1969    0.0554   -0.7103 C   0  0  0  0  0  0  0  0  0  0  0  0
    0.8248    0.7090    0.4622 N   0  0  0  0  0  0  0  0  0  0  0  0
   -0.5106    1.1050    0.7411 N   0  0  0  0  0  0  0  0  0  0  0  0
   -1.2745    0.1112    1.5188 C   0  0  0  0  0  0  0  0  0  0  0  0
   -1.3273   -1.2978    0.9641 C   0  0  0  0  0  0  0  0  0  0  0  0
   -2.3036   -1.6669    0.0290 C   0  0  0  0  0  0  0  0  0  0  0  0
   -2.3419   -2.9651   -0.4834 C   0  0  0  0  0  0  0  0  0  0  0  0
   -1.4082   -3.9106   -0.0640 C   0  0  0  0  0  0  0  0  0  0  0  0
   -0.4354   -3.5602    0.8694 C   0  0  0  0  0  0  0  0  0  0  0  0
   -0.3954   -2.2624    1.3816 C   0  0  0  0  0  0  0  0  0  0  0  0
   -1.2398    1.7001   -0.3903 C   0  0  0  0  0  0  0  0  0  0  0  0
   -2.3795    2.6009    0.0510 C   0  0  0  0  0  0  0  0  0  0  0  0
   -3.6860    2.3722   -0.4049 C   0  0  0  0  0  0  0  0  0  0  0  0
   -4.7320    3.2060   -0.0053 C   0  0  0  0  0  0  0  0  0  0  0  0
   -4.4831    4.2793    0.8482 C   0  0  0  0  0  0  0  0  0  0  0  0
   -3.1879    4.5229    1.3010 C   0  0  0  0  0  0  0  0  0  0  0  0
   -2.1409    3.6906    0.9026 C   0  0  0  0  0  0  0  0  0  0  0  0
    2.5736   -0.5078   -0.7090 C   0  0  0  0  0  0  0  0  0  0  0  0
    2.7867   -1.7214   -1.3848 C   0  0  0  0  0  0  0  0  0  0  0  0
    4.0499   -2.3236   -1.4302 C   0  0  0  0  0  0  0  0  0  0  0  0
    5.0761   -1.6457   -0.7731 C   0  0  0  0  0  0  0  0  0  0  0  0
    6.4082   -1.9003   -0.6009 N   0  0  0  0  0  0  0  0  0  0  0  0
    7.0119   -0.9415    0.1200 N   0  0  0  0  0  0  0  0  0  0  0  0
    6.0930   -0.0339    0.4256 N   0  0  0  0  0  0  0  0  0  0  0  0
    4.8995   -0.4404   -0.1071 C   0  0  0  0  0  0  0  0  0  0  0  0
    3.6326    0.1568   -0.0693 C   0  0  0  0  0  0  0  0  0  0  0  0
    1.4492    0.6765    1.2615 H   0  0  0  0  0  0  0  0  0  0  0  0
   -0.8267    0.0642    2.5213 H   0  0  0  0  0  0  0  0  0  0  0  0
   -2.2979    0.4582    1.7092 H   0  0  0  0  0  0  0  0  0  0  0  0
   -3.0381   -0.9419   -0.3115 H   0  0  0  0  0  0  0  0  0  0  0  0
   -3.0991   -3.2359   -1.2144 H   0  0  0  0  0  0  0  0  0  0  0  0
   -1.4398   -4.9196   -0.4658 H   0  0  0  0  0  0  0  0  0  0  0  0
    0.2919   -4.2972    1.1985 H   0  0  0  0  0  0  0  0  0  0  0  0
    0.3701   -2.0047    2.1092 H   0  0  0  0  0  0  0  0  0  0  0  0
   -1.6180    0.9328   -1.0741 H   0  0  0  0  0  0  0  0  0  0  0  0
   -0.5634    2.3361   -0.9779 H   0  0  0  0  0  0  0  0  0  0  0  0
   -3.8963    1.5435   -1.0771 H   0  0  0  0  0  0  0  0  0  0  0  0
   -5.7412    3.0197   -0.3632 H   0  0  0  0  0  0  0  0  0  0  0  0
   -5.2979    4.9285    1.1573 H   0  0  0  0  0  0  0  0  0  0  0  0
   -2.9916    5.3620    1.9630 H   0  0  0  0  0  0  0  0  0  0  0  0
   -1.1327    3.8902    1.2595 H   0  0  0  0  0  0  0  0  0  0  0  0
    1.9479   -2.2093   -1.8833 H   0  0  0  0  0  0  0  0  0  0  0  0
    4.2103   -3.2608   -1.9524 H   0  0  0  0  0  0  0  0  0  0  0  0
    6.9602   -2.6810   -0.9341 H   0  0  0  0  0  0  0  0  0  0  0  0
    3.5086    1.1145    0.4220 H   0  0  0  0  0  0  0  0  0  0  0  0
  1  2  2  0
  2  3  1  0
  3  4  1  0
  4  5  1  0
  5  6  1  0
  6  7  2  0
  7  8  1  0
  8  9  2  0
  9 10  1  0
 10 11  2  0
  4 12  1  0
 12 13  1  0
 13 14  2  0
 14 15  1  0
 15 16  2  0
 16 17  1  0
 17 18  2  0
  2 19  1  0
 19 20  2  0
 20 21  1  0
 21 22  2  0
 22 23  1  0
 23 24  1  0
 24 25  2  0
 25 26  1  0
 26 27  2  0
 11  6  1  0
 18 13  1  0
 27 19  1  0
 26 22  1  0
  3 28  1  0
  5 29  1  0
  5 30  1  0
  7 31  1  0
  8 32  1  0
  9 33  1  0
 10 34  1  0
 11 35  1  0
 12 36  1  0
 12 37  1  0
 14 38  1  0
 15 39  1  0
 16 40  1  0
 17 41  1  0
 18 42  1  0
 20 43  1  0
 21 44  1  0
 23 45  1  0
 27 46  1  0
M  END
>  <Unnamed: 0>  (192) 
1232

>  <ID>  (192) 
TRAIN_1232

>  <Canonical_Smiles>  (192) 
O=C(NN(Cc1ccccc1)Cc2ccccc2)c3ccc4[nH]nnc4c3

>  <Inhibition>  (192) 
77.5

>  <TDC_conf_true_inhibitor>  (192) 
1

>  <TDC_conf_non_inhibitor>  (192) 
0

>  <split>  (192) 
1

$$$$
192
     RDKit          3D

 57 60  0  0  0  0  0  0  0  0999 V2000
    3.7221    3.4270   -1.1788 C   0  0  0  0  0  0  0  0  0  0  0  0
    3.4438    2.2553   -0.4223 O   0  0  0  0  0  0  0  0  0  0  0  0
    3.6122    1.0712   -1.2044 C   0  0  0  0  0  0  0  0  0  0  0  0
    3.3667   -0.1777   -0.3361 C   0  0  0  0  0  0  0  0  0  0  0  0
    2.0122   -0.0993    0.4250 C   0  0  0  0  0  0  0  0  0  0  0  0
    0.8656    0.0773   -0.4753 N   0  0  0  0  0  0  0  0  0  0  0  0
   -0.4083    0.0175    0.2554 C   0  0  1  0  0  0  0  0  0  0  0  0
   -1.4390    1.0470   -0.3029 C   0  0  2  0  0  0  0  0  0  0  0  0
   -1.2178    2.3465    0.2461 O   0  0  0  0  0  0  0  0  0  0  0  0
   -2.8571    0.4824    0.0446 C   0  0  0  0  0  0  0  0  0  0  0  0
   -3.8832    0.9902   -0.9937 C   0  0  0  0  0  0  0  0  0  0  0  0
   -5.2919    1.0832   -0.4099 C   0  0  0  0  0  0  0  0  0  0  0  0
   -5.3823    2.0050    0.7215 N   0  0  0  0  0  0  0  0  0  0  0  0
   -4.1559    2.1005    1.5146 C   0  0  0  0  0  0  0  0  0  0  0  0
   -3.3144    0.8267    1.4825 C   0  0  0  0  0  0  0  0  0  0  0  0
   -2.5554   -1.0069   -0.0555 C   0  0  0  0  0  0  0  0  0  0  0  0
   -3.4501   -2.0588   -0.2118 C   0  0  0  0  0  0  0  0  0  0  0  0
   -2.9556   -3.3640   -0.2644 C   0  0  0  0  0  0  0  0  0  0  0  0
   -1.5815   -3.6113   -0.1560 C   0  0  0  0  0  0  0  0  0  0  0  0
   -0.6839   -2.5560    0.0078 C   0  0  0  0  0  0  0  0  0  0  0  0
   -1.1761   -1.2581    0.0510 C   0  0  0  0  0  0  0  0  0  0  0  0
    3.4885   -1.4598   -1.1797 C   0  0  0  0  0  0  0  0  0  0  0  0
    3.8485   -2.5625   -0.1871 C   0  0  0  0  0  0  0  0  0  0  0  0
    4.5097   -1.8673    1.0019 C   0  0  0  0  0  0  0  0  0  0  0  0
    4.5160   -0.3760    0.6735 C   0  0  0  0  0  0  0  0  0  0  0  0
    3.5688    4.2966   -0.5343 H   0  0  0  0  0  0  0  0  0  0  0  0
    4.7614    3.4241   -1.5209 H   0  0  0  0  0  0  0  0  0  0  0  0
    3.0428    3.5008   -2.0334 H   0  0  0  0  0  0  0  0  0  0  0  0
    2.9136    1.0964   -2.0496 H   0  0  0  0  0  0  0  0  0  0  0  0
    4.6284    1.0546   -1.6185 H   0  0  0  0  0  0  0  0  0  0  0  0
    1.8678   -1.0088    1.0194 H   0  0  0  0  0  0  0  0  0  0  0  0
    2.0415    0.7352    1.1378 H   0  0  0  0  0  0  0  0  0  0  0  0
    0.9562    0.9851   -0.9275 H   0  0  0  0  0  0  0  0  0  0  0  0
   -0.2656    0.2051    1.3279 H   0  0  0  0  0  0  0  0  0  0  0  0
   -1.3325    1.1250   -1.3954 H   0  0  0  0  0  0  0  0  0  0  0  0
   -0.2682    2.5408    0.1599 H   0  0  0  0  0  0  0  0  0  0  0  0
   -3.5984    1.9925   -1.3429 H   0  0  0  0  0  0  0  0  0  0  0  0
   -3.8946    0.3504   -1.8847 H   0  0  0  0  0  0  0  0  0  0  0  0
   -5.9876    1.4197   -1.1862 H   0  0  0  0  0  0  0  0  0  0  0  0
   -5.6346    0.0922   -0.0937 H   0  0  0  0  0  0  0  0  0  0  0  0
   -6.1638    1.7322    1.3164 H   0  0  0  0  0  0  0  0  0  0  0  0
   -3.5713    2.9527    1.1517 H   0  0  0  0  0  0  0  0  0  0  0  0
   -4.4241    2.3365    2.5508 H   0  0  0  0  0  0  0  0  0  0  0  0
   -2.4566    0.9350    2.1573 H   0  0  0  0  0  0  0  0  0  0  0  0
   -3.9167    0.0083    1.9015 H   0  0  0  0  0  0  0  0  0  0  0  0
   -4.5180   -1.8887   -0.2894 H   0  0  0  0  0  0  0  0  0  0  0  0
   -3.6431   -4.1971   -0.3886 H   0  0  0  0  0  0  0  0  0  0  0  0
   -1.2117   -4.6326   -0.1987 H   0  0  0  0  0  0  0  0  0  0  0  0
    0.3802   -2.7505    0.0905 H   0  0  0  0  0  0  0  0  0  0  0  0
    4.3030   -1.3617   -1.9093 H   0  0  0  0  0  0  0  0  0  0  0  0
    2.5802   -1.7005   -1.7409 H   0  0  0  0  0  0  0  0  0  0  0  0
    4.5125   -3.3039   -0.6433 H   0  0  0  0  0  0  0  0  0  0  0  0
    2.9485   -3.0932    0.1433 H   0  0  0  0  0  0  0  0  0  0  0  0
    5.5251   -2.2385    1.1748 H   0  0  0  0  0  0  0  0  0  0  0  0
    3.9344   -2.0585    1.9149 H   0  0  0  0  0  0  0  0  0  0  0  0
    5.4807   -0.1197    0.2171 H   0  0  0  0  0  0  0  0  0  0  0  0
    4.4089    0.2387    1.5734 H   0  0  0  0  0  0  0  0  0  0  0  0
  1  2  1  0
  2  3  1  0
  3  4  1  0
  4  5  1  0
  5  6  1  0
  6  7  1  0
  7  8  1  0
  8  9  1  0
  8 10  1  0
 10 11  1  0
 11 12  1  0
 12 13  1  0
 13 14  1  0
 14 15  1  0
 10 16  1  0
 16 17  2  0
 17 18  1  0
 18 19  2  0
 19 20  1  0
 20 21  2  0
  4 22  1  0
 22 23  1  0
 23 24  1  0
 24 25  1  0
 25  4  1  0
 21  7  1  0
 15 10  1  0
 21 16  1  0
  1 26  1  0
  1 27  1  0
  1 28  1  0
  3 29  1  0
  3 30  1  0
  5 31  1  0
  5 32  1  0
  6 33  1  0
  7 34  1  1
  8 35  1  6
  9 36  1  0
 11 37  1  0
 11 38  1  0
 12 39  1  0
 12 40  1  0
 13 41  1  0
 14 42  1  0
 14 43  1  0
 15 44  1  0
 15 45  1  0
 17 46  1  0
 18 47  1  0
 19 48  1  0
 20 49  1  0
 22 50  1  0
 22 51  1  0
 23 52  1  0
 23 53  1  0
 24 54  1  0
 24 55  1  0
 25 56  1  0
 25 57  1  0
M  END
>  <Unnamed: 0>  (193) 
1238

>  <ID>  (193) 
TRAIN_1238

>  <Canonical_Smiles>  (193) 
COCC1(CN[C@H]2[C@H](O)C3(CCNCC3)c4ccccc24)CCCC1

>  <Inhibition>  (193) 
33.7

>  <TDC_conf_true_inhibitor>  (193) 
1

>  <TDC_conf_non_inhibitor>  (193) 
0

>  <split>  (193) 
1

$$$$
193
     RDKit          3D

 40 41  0  0  0  0  0  0  0  0999 V2000
    0.8578    0.0000    0.0000 I   0  0  0  0  0  0  0  0  0  0  0  0
    2.3743   -1.8427   -0.4531 C   0  0  0  0  0  0  0  0  0  0  0  0
    2.8573   -0.8798   -1.5229 C   0  0  0  0  0  0  0  0  0  0  0  0
    3.7187    0.1099   -0.7964 C   0  0  0  0  0  0  0  0  0  0  0  0
    3.7950    1.1020   -0.2203 N   0  0  0  0  0  0  0  0  0  0  0  0
    4.8371    1.7041    0.3221 C   0  0  0  0  0  0  0  0  0  0  0  0
    5.9828    1.0963    0.1989 C   0  0  0  0  0  0  0  0  0  0  0  0
    5.5454   -0.4196   -0.7438 S   0  0  0  0  0  0  0  0  0  0  0  0
    1.6182   -1.1495    0.5651 N   0  0  0  0  0  0  0  0  0  0  0  0
    0.3477   -0.5767    0.3342 C   0  0  0  0  0  0  0  0  0  0  0  0
   -0.2217   -0.6605   -0.8096 N   0  0  0  0  0  0  0  0  0  0  0  0
   -1.4787   -0.1060   -1.0968 C   0  0  0  0  0  0  0  0  0  0  0  0
   -1.7691    1.1876   -0.7510 C   0  0  0  0  0  0  0  0  0  0  0  0
   -2.9745    1.8026   -1.0449 C   0  0  0  0  0  0  0  0  0  0  0  0
   -3.9149    1.0559   -1.7214 C   0  0  0  0  0  0  0  0  0  0  0  0
   -3.6800   -0.2600   -2.0997 C   0  0  0  0  0  0  0  0  0  0  0  0
   -2.4629   -0.8207   -1.7806 C   0  0  0  0  0  0  0  0  0  0  0  0
   -0.3884    0.1342    1.3219 N   0  0  0  0  0  0  0  0  0  0  0  0
   -1.6937   -0.1673    1.7232 C   0  0  0  0  0  0  0  0  0  0  0  0
   -2.3925    0.5599    2.6836 C   0  0  0  0  0  0  0  0  0  0  0  0
   -3.6009   -0.0420    2.9212 C   0  0  0  0  0  0  0  0  0  0  0  0
   -3.6332   -1.1146    2.1198 N   0  0  0  0  0  0  0  0  0  0  0  0
   -2.4838   -1.1706    1.4144 N   0  0  0  0  0  0  0  0  0  0  0  0
   -0.8578    0.0000    0.0000 H   0  0  0  0  0  0  0  0  0  0  0  0
    3.1719   -2.4207    0.0097 H   0  0  0  0  0  0  0  0  0  0  0  0
    1.6409   -2.5177   -0.9761 H   0  0  0  0  0  0  0  0  0  0  0  0
    3.3842   -1.4492   -2.2798 H   0  0  0  0  0  0  0  0  0  0  0  0
    1.9816   -0.3091   -1.8818 H   0  0  0  0  0  0  0  0  0  0  0  0
    4.7072    2.6868    0.8542 H   0  0  0  0  0  0  0  0  0  0  0  0
    7.0592    1.3164    0.5283 H   0  0  0  0  0  0  0  0  0  0  0  0
    2.0366   -1.0513    1.5152 H   0  0  0  0  0  0  0  0  0  0  0  0
   -1.0359    1.8164   -0.2202 H   0  0  0  0  0  0  0  0  0  0  0  0
   -3.1876    2.8436   -0.7583 H   0  0  0  0  0  0  0  0  0  0  0  0
   -4.8665    1.5514   -1.9496 H   0  0  0  0  0  0  0  0  0  0  0  0
   -4.4554   -0.8263   -2.6401 H   0  0  0  0  0  0  0  0  0  0  0  0
   -2.2763   -1.8498   -2.0766 H   0  0  0  0  0  0  0  0  0  0  0  0
    0.1874    0.9220    1.7972 H   0  0  0  0  0  0  0  0  0  0  0  0
   -2.0178    1.4710    3.1654 H   0  0  0  0  0  0  0  0  0  0  0  0
   -4.3833    0.2496    3.5953 H   0  0  0  0  0  0  0  0  0  0  0  0
   -2.3286   -1.9758    0.7535 H   0  0  0  0  0  0  0  0  0  0  0  0
  2  3  1  0
  3  4  1  0
  4  5  2  0
  5  6  1  0
  6  7  2  0
  7  8  1  0
  2  9  1  0
  9 10  1  0
 10 11  2  0
 11 12  1  0
 12 13  2  0
 13 14  1  0
 14 15  2  0
 15 16  1  0
 16 17  2  0
 10 18  1  0
 18 19  1  0
 19 20  2  0
 20 21  1  0
 21 22  2  0
 22 23  1  0
  8  4  1  0
 17 12  1  0
 23 19  1  0
  1 24  1  0
  2 25  1  0
  2 26  1  0
  3 27  1  0
  3 28  1  0
  6 29  1  0
  7 30  1  0
  9 31  1  0
 13 32  1  0
 14 33  1  0
 15 34  1  0
 16 35  1  0
 17 36  1  0
 18 37  1  0
 20 38  1  0
 21 39  1  0
 23 40  1  0
M  END
>  <Unnamed: 0>  (194) 
1242

>  <ID>  (194) 
TRAIN_1242

>  <Canonical_Smiles>  (194) 
I.C(Cc1nccs1)N\C(=N\c2ccccc2)\Nc3ccn[nH]3

>  <Inhibition>  (194) 
45.8

>  <TDC_conf_true_inhibitor>  (194) 
1

>  <TDC_conf_non_inhibitor>  (194) 
0

>  <split>  (194) 
1

$$$$
194
     RDKit          3D

 46 49  0  0  0  0  0  0  0  0999 V2000
    5.3658    0.1812    1.6777 C   0  0  0  0  0  0  0  0  0  0  0  0
    4.2432    0.9270    1.0186 C   0  0  0  0  0  0  0  0  0  0  0  0
    3.7947    2.1415    1.5474 C   0  0  0  0  0  0  0  0  0  0  0  0
    2.7293    2.8174    0.9544 C   0  0  0  0  0  0  0  0  0  0  0  0
    2.0964    2.2808   -0.1673 C   0  0  0  0  0  0  0  0  0  0  0  0
    2.5193    1.0601   -0.7038 C   0  0  0  0  0  0  0  0  0  0  0  0
    3.5910    0.3868   -0.0996 C   0  0  0  0  0  0  0  0  0  0  0  0
    1.8508    0.4881   -1.8678 C   0  0  0  0  0  0  0  0  0  0  0  0
    2.5441    0.0556   -2.9707 N   0  0  0  0  0  0  0  0  0  0  0  0
    1.7710   -0.4488   -3.9434 N   0  0  0  0  0  0  0  0  0  0  0  0
    0.5369   -0.3123   -3.4598 C   0  0  0  0  0  0  0  0  0  0  0  0
    0.5119    0.2576   -2.1637 C   0  0  0  0  0  0  0  0  0  0  0  0
   -0.7087    0.5300   -1.3511 C   0  0  0  0  0  0  0  0  0  0  0  0
   -0.6780   -0.2008   -0.0829 N   0  0  0  0  0  0  0  0  0  0  0  0
   -0.8878   -1.6372   -0.1941 C   0  0  0  0  0  0  0  0  0  0  0  0
   -2.2684   -2.1224    0.3020 C   0  0  0  0  0  0  0  0  0  0  0  0
   -2.5250   -1.8548    1.8024 C   0  0  0  0  0  0  0  0  0  0  0  0
   -2.8587   -0.3962    2.1400 C   0  0  0  0  0  0  0  0  0  0  0  0
   -3.7603    0.2137    1.1325 C   0  0  0  0  0  0  0  0  0  0  0  0
   -4.4411    1.3369    1.2119 N   0  0  0  0  0  0  0  0  0  0  0  0
   -5.1017    1.5149    0.0131 N   0  0  0  0  0  0  0  0  0  0  0  0
   -4.8073    0.4958   -0.7612 C   0  0  0  0  0  0  0  0  0  0  0  0
   -3.9687   -0.3388   -0.0985 N   0  0  0  0  0  0  0  0  0  0  0  0
   -3.4398   -1.6026   -0.5488 C   0  0  0  0  0  0  0  0  0  0  0  0
    5.9298   -0.4033    0.9425 H   0  0  0  0  0  0  0  0  0  0  0  0
    6.0699    0.8739    2.1508 H   0  0  0  0  0  0  0  0  0  0  0  0
    4.9685   -0.4958    2.4402 H   0  0  0  0  0  0  0  0  0  0  0  0
    4.2735    2.5693    2.4252 H   0  0  0  0  0  0  0  0  0  0  0  0
    2.3898    3.7640    1.3669 H   0  0  0  0  0  0  0  0  0  0  0  0
    1.2743    2.8302   -0.6200 H   0  0  0  0  0  0  0  0  0  0  0  0
    3.9159   -0.5767   -0.4876 H   0  0  0  0  0  0  0  0  0  0  0  0
    3.5463    0.0888   -3.1205 H   0  0  0  0  0  0  0  0  0  0  0  0
   -0.2992   -0.6380   -4.0656 H   0  0  0  0  0  0  0  0  0  0  0  0
   -0.7652    1.6024   -1.1342 H   0  0  0  0  0  0  0  0  0  0  0  0
   -1.6147    0.2902   -1.9171 H   0  0  0  0  0  0  0  0  0  0  0  0
    0.2232   -0.0131    0.3609 H   0  0  0  0  0  0  0  0  0  0  0  0
   -0.7213   -2.0045   -1.2144 H   0  0  0  0  0  0  0  0  0  0  0  0
   -0.1235   -2.1334    0.4189 H   0  0  0  0  0  0  0  0  0  0  0  0
   -2.2469   -3.2146    0.1739 H   0  0  0  0  0  0  0  0  0  0  0  0
   -3.3766   -2.4776    2.1094 H   0  0  0  0  0  0  0  0  0  0  0  0
   -1.6707   -2.1885    2.4049 H   0  0  0  0  0  0  0  0  0  0  0  0
   -3.3316   -0.3546    3.1281 H   0  0  0  0  0  0  0  0  0  0  0  0
   -1.9412    0.1968    2.2129 H   0  0  0  0  0  0  0  0  0  0  0  0
   -5.1702    0.3291   -1.7647 H   0  0  0  0  0  0  0  0  0  0  0  0
   -4.2755   -2.3106   -0.4857 H   0  0  0  0  0  0  0  0  0  0  0  0
   -3.1633   -1.5073   -1.6044 H   0  0  0  0  0  0  0  0  0  0  0  0
  1  2  1  0
  2  3  2  0
  3  4  1  0
  4  5  2  0
  5  6  1  0
  6  7  2  0
  6  8  1  0
  8  9  1  0
  9 10  1  0
 10 11  2  0
 11 12  1  0
 12 13  1  0
 13 14  1  0
 14 15  1  0
 15 16  1  0
 16 17  1  0
 17 18  1  0
 18 19  1  0
 19 20  2  0
 20 21  1  0
 21 22  2  0
 22 23  1  0
 23 24  1  0
  7  2  1  0
 12  8  2  0
 24 16  1  0
 23 19  1  0
  1 25  1  0
  1 26  1  0
  1 27  1  0
  3 28  1  0
  4 29  1  0
  5 30  1  0
  7 31  1  0
  9 32  1  0
 11 33  1  0
 13 34  1  0
 13 35  1  0
 14 36  1  0
 15 37  1  0
 15 38  1  0
 16 39  1  0
 17 40  1  0
 17 41  1  0
 18 42  1  0
 18 43  1  0
 22 44  1  0
 24 45  1  0
 24 46  1  0
M  END
>  <Unnamed: 0>  (195) 
1246

>  <ID>  (195) 
TRAIN_1246

>  <Canonical_Smiles>  (195) 
Cc1cccc(c1)c2[nH]ncc2CNCC3CCc4nncn4C3

>  <Inhibition>  (195) 
70.3

>  <TDC_conf_true_inhibitor>  (195) 
1

>  <TDC_conf_non_inhibitor>  (195) 
0

>  <split>  (195) 
1

$$$$
195
     RDKit          3D

 42 44  0  0  0  0  0  0  0  0999 V2000
   -1.7701    0.1553   -3.8068 C   0  0  0  0  0  0  0  0  0  0  0  0
   -2.3511    0.5437   -2.4682 C   0  0  0  0  0  0  0  0  0  0  0  0
   -3.5844    0.2029   -2.2234 N   0  0  0  0  0  0  0  0  0  0  0  0
   -4.0774    0.4786   -0.9730 N   0  0  0  0  0  0  0  0  0  0  0  0
   -3.7439   -0.4384    0.0781 C   0  0  0  0  0  0  0  0  0  0  0  0
   -4.2963   -0.2208    1.3466 C   0  0  0  0  0  0  0  0  0  0  0  0
   -4.0460   -1.0006    2.4298 N   0  0  0  0  0  0  0  0  0  0  0  0
   -3.1900   -2.0183    2.2057 C   0  0  0  0  0  0  0  0  0  0  0  0
   -2.6163   -2.2408    0.9665 C   0  0  0  0  0  0  0  0  0  0  0  0
   -2.8715   -1.4609   -0.1094 N   0  0  0  0  0  0  0  0  0  0  0  0
   -1.4551    1.2908   -1.5540 C   0  0  0  0  0  0  0  0  0  0  0  0
   -1.7725    2.6033   -1.1982 C   0  0  0  0  0  0  0  0  0  0  0  0
   -0.9177    3.3059   -0.3538 C   0  0  0  0  0  0  0  0  0  0  0  0
    0.2408    2.6914    0.1278 C   0  0  0  0  0  0  0  0  0  0  0  0
    0.5551    1.3733   -0.2226 C   0  0  0  0  0  0  0  0  0  0  0  0
    1.7123    0.8982    0.3304 O   0  0  0  0  0  0  0  0  0  0  0  0
    2.0256   -0.4749    0.0987 C   0  0  0  0  0  0  0  0  0  0  0  0
    3.3157   -0.8086    0.8100 C   0  0  0  0  0  0  0  0  0  0  0  0
    4.4832   -0.0787    0.5404 C   0  0  0  0  0  0  0  0  0  0  0  0
    5.6829   -0.3967    1.1787 C   0  0  0  0  0  0  0  0  0  0  0  0
    5.7298   -1.4495    2.0901 C   0  0  0  0  0  0  0  0  0  0  0  0
    4.5778   -2.1844    2.3643 C   0  0  0  0  0  0  0  0  0  0  0  0
    3.3765   -1.8675    1.7268 C   0  0  0  0  0  0  0  0  0  0  0  0
   -0.2952    0.6710   -1.0749 C   0  0  0  0  0  0  0  0  0  0  0  0
   -2.4544    0.4653   -4.6022 H   0  0  0  0  0  0  0  0  0  0  0  0
   -1.6508   -0.9314   -3.8437 H   0  0  0  0  0  0  0  0  0  0  0  0
   -0.7996    0.6282   -3.9794 H   0  0  0  0  0  0  0  0  0  0  0  0
   -5.0971    0.5346   -0.9835 H   0  0  0  0  0  0  0  0  0  0  0  0
   -4.9665    0.6126    1.5280 H   0  0  0  0  0  0  0  0  0  0  0  0
   -2.9729   -2.6558    3.0548 H   0  0  0  0  0  0  0  0  0  0  0  0
   -1.9288   -3.0620    0.8015 H   0  0  0  0  0  0  0  0  0  0  0  0
   -2.6788    3.0700   -1.5741 H   0  0  0  0  0  0  0  0  0  0  0  0
   -1.1509    4.3274   -0.0656 H   0  0  0  0  0  0  0  0  0  0  0  0
    0.9040    3.2416    0.7921 H   0  0  0  0  0  0  0  0  0  0  0  0
    2.1671   -0.6650   -0.9725 H   0  0  0  0  0  0  0  0  0  0  0  0
    1.2156   -1.1095    0.4795 H   0  0  0  0  0  0  0  0  0  0  0  0
    4.4571    0.7485   -0.1662 H   0  0  0  0  0  0  0  0  0  0  0  0
    6.5796    0.1794    0.9659 H   0  0  0  0  0  0  0  0  0  0  0  0
    6.6637   -1.6956    2.5884 H   0  0  0  0  0  0  0  0  0  0  0  0
    4.6148   -3.0043    3.0768 H   0  0  0  0  0  0  0  0  0  0  0  0
    2.4882   -2.4516    1.9551 H   0  0  0  0  0  0  0  0  0  0  0  0
   -0.1025   -0.3560   -1.3642 H   0  0  0  0  0  0  0  0  0  0  0  0
  1  2  1  0
  2  3  2  0
  3  4  1  0
  4  5  1  0
  5  6  2  0
  6  7  1  0
  7  8  2  0
  8  9  1  0
  9 10  2  0
  2 11  1  0
 11 12  2  0
 12 13  1  0
 13 14  2  0
 14 15  1  0
 15 16  1  0
 16 17  1  0
 17 18  1  0
 18 19  2  0
 19 20  1  0
 20 21  2  0
 21 22  1  0
 22 23  2  0
 15 24  2  0
 10  5  1  0
 24 11  1  0
 23 18  1  0
  1 25  1  0
  1 26  1  0
  1 27  1  0
  4 28  1  0
  6 29  1  0
  8 30  1  0
  9 31  1  0
 12 32  1  0
 13 33  1  0
 14 34  1  0
 17 35  1  0
 17 36  1  0
 19 37  1  0
 20 38  1  0
 21 39  1  0
 22 40  1  0
 23 41  1  0
 24 42  1  0
M  END
>  <Unnamed: 0>  (196) 
1249

>  <ID>  (196) 
TRAIN_1249

>  <Canonical_Smiles>  (196) 
C\C(=N\Nc1cnccn1)\c2cccc(OCc3ccccc3)c2

>  <Inhibition>  (196) 
46.3

>  <TDC_conf_true_inhibitor>  (196) 
1

>  <TDC_conf_non_inhibitor>  (196) 
0

>  <split>  (196) 
1

$$$$
196
     RDKit          3D

 48 50  0  0  0  0  0  0  0  0999 V2000
   -6.2959    0.6065    0.5794 C   0  0  0  0  0  0  0  0  0  0  0  0
   -5.4990   -0.4743   -0.1528 C   0  0  0  0  0  0  0  0  0  0  0  0
   -4.6814    0.1188   -1.3146 C   0  0  0  0  0  0  0  0  0  0  0  0
   -3.2455    0.4232   -0.9053 C   0  0  0  0  0  0  0  0  0  0  0  0
   -2.4921   -0.8389   -0.4527 C   0  0  0  0  0  0  0  0  0  0  0  0
   -3.4260   -1.8976    0.1535 C   0  0  0  0  0  0  0  0  0  0  0  0
   -4.6248   -1.2553    0.8448 C   0  0  0  0  0  0  0  0  0  0  0  0
   -1.5302   -0.4871    0.5507 O   0  0  0  0  0  0  0  0  0  0  0  0
   -0.3346    0.1188    0.0524 C   0  0  0  0  0  0  0  0  0  0  0  0
    0.2635    0.9520    1.1836 C   0  0  0  0  0  0  0  0  0  0  0  0
    1.5966    1.5570    0.7707 C   0  0  0  0  0  0  0  0  0  0  0  0
    2.5323    0.5461    0.2786 N   0  0  0  0  0  0  0  0  0  0  0  0
    2.0006   -0.3370   -0.7633 C   0  0  0  0  0  0  0  0  0  0  0  0
    0.6669   -0.9566   -0.3687 C   0  0  0  0  0  0  0  0  0  0  0  0
    3.8872    0.9250    0.2831 C   0  0  0  0  0  0  0  0  0  0  0  0
    4.2416    2.0547    0.6116 O   0  0  0  0  0  0  0  0  0  0  0  0
    4.7430   -0.0926   -0.0803 N   0  0  0  0  0  0  0  0  0  0  0  0
    6.1061    0.0385   -0.2711 C   0  0  0  0  0  0  0  0  0  0  0  0
    7.0418   -1.0015   -0.4702 C   0  0  0  0  0  0  0  0  0  0  0  0
    8.2880   -0.5494   -0.6372 N   0  0  0  0  0  0  0  0  0  0  0  0
    8.1491    0.7847   -0.5391 N   0  0  0  0  0  0  0  0  0  0  0  0
    6.8614    1.1832   -0.3326 C   0  0  0  0  0  0  0  0  0  0  0  0
   -5.6351    1.3642    1.0138 H   0  0  0  0  0  0  0  0  0  0  0  0
   -6.8904    0.1690    1.3884 H   0  0  0  0  0  0  0  0  0  0  0  0
   -6.9853    1.1118   -0.1054 H   0  0  0  0  0  0  0  0  0  0  0  0
   -6.2272   -1.1703   -0.5905 H   0  0  0  0  0  0  0  0  0  0  0  0
   -5.1605    1.0224   -1.7090 H   0  0  0  0  0  0  0  0  0  0  0  0
   -4.6628   -0.6026   -2.1422 H   0  0  0  0  0  0  0  0  0  0  0  0
   -2.7146    0.8768   -1.7509 H   0  0  0  0  0  0  0  0  0  0  0  0
   -3.2398    1.1790   -0.1094 H   0  0  0  0  0  0  0  0  0  0  0  0
   -1.9785   -1.2986   -1.3052 H   0  0  0  0  0  0  0  0  0  0  0  0
   -3.7925   -2.5594   -0.6413 H   0  0  0  0  0  0  0  0  0  0  0  0
   -2.8814   -2.5229    0.8706 H   0  0  0  0  0  0  0  0  0  0  0  0
   -5.2322   -2.0280    1.3311 H   0  0  0  0  0  0  0  0  0  0  0  0
   -4.2646   -0.5950    1.6443 H   0  0  0  0  0  0  0  0  0  0  0  0
   -0.5622    0.7794   -0.7930 H   0  0  0  0  0  0  0  0  0  0  0  0
    0.3975    0.3227    2.0736 H   0  0  0  0  0  0  0  0  0  0  0  0
   -0.4373    1.7425    1.4776 H   0  0  0  0  0  0  0  0  0  0  0  0
    1.4558    2.2983   -0.0258 H   0  0  0  0  0  0  0  0  0  0  0  0
    2.0352    2.0782    1.6295 H   0  0  0  0  0  0  0  0  0  0  0  0
    2.7050   -1.1356   -1.0087 H   0  0  0  0  0  0  0  0  0  0  0  0
    1.8869    0.2686   -1.6714 H   0  0  0  0  0  0  0  0  0  0  0  0
    0.8125   -1.6648    0.4576 H   0  0  0  0  0  0  0  0  0  0  0  0
    0.2727   -1.5467   -1.2032 H   0  0  0  0  0  0  0  0  0  0  0  0
    4.3967   -1.0333    0.0227 H   0  0  0  0  0  0  0  0  0  0  0  0
    6.8690   -2.0688   -0.5017 H   0  0  0  0  0  0  0  0  0  0  0  0
    8.9769    1.3648   -0.6262 H   0  0  0  0  0  0  0  0  0  0  0  0
    6.6074    2.2297   -0.2412 H   0  0  0  0  0  0  0  0  0  0  0  0
  1  2  1  0
  2  3  1  0
  3  4  1  0
  4  5  1  0
  5  6  1  0
  6  7  1  0
  5  8  1  0
  8  9  1  0
  9 10  1  0
 10 11  1  0
 11 12  1  0
 12 13  1  0
 13 14  1  0
 12 15  1  0
 15 16  2  0
 15 17  1  0
 17 18  1  0
 18 19  1  0
 19 20  2  0
 20 21  1  0
 21 22  1  0
  7  2  1  0
 14  9  1  0
 22 18  2  0
  1 23  1  0
  1 24  1  0
  1 25  1  0
  2 26  1  0
  3 27  1  0
  3 28  1  0
  4 29  1  0
  4 30  1  0
  5 31  1  0
  6 32  1  0
  6 33  1  0
  7 34  1  0
  7 35  1  0
  9 36  1  0
 10 37  1  0
 10 38  1  0
 11 39  1  0
 11 40  1  0
 13 41  1  0
 13 42  1  0
 14 43  1  0
 14 44  1  0
 17 45  1  0
 19 46  1  0
 21 47  1  0
 22 48  1  0
M  END
>  <Unnamed: 0>  (197) 
1262

>  <ID>  (197) 
TRAIN_1262

>  <Canonical_Smiles>  (197) 
CC1CCC(CC1)OC2CCN(CC2)C(=O)Nc3cn[nH]c3

>  <Inhibition>  (197) 
44.7

>  <TDC_conf_true_inhibitor>  (197) 
1

>  <TDC_conf_non_inhibitor>  (197) 
0

>  <split>  (197) 
1

$$$$
197
     RDKit          3D

 39 42  0  0  0  0  0  0  0  0999 V2000
   -6.6978   -2.5096    0.3246 O   0  0  0  0  0  0  0  0  0  0  0  0
   -6.1826   -1.2012    0.6881 S   0  0  0  0  0  6  0  0  0  0  0  0
   -6.6839   -0.4557    1.8294 O   0  0  0  0  0  0  0  0  0  0  0  0
   -6.2308   -0.1242   -0.7408 C   0  0  0  0  0  0  0  0  0  0  0  0
   -4.7852   -0.0122   -1.2094 C   0  0  0  0  0  0  0  0  0  0  0  0
   -3.9169   -0.0897    0.0570 C   0  0  0  0  0  0  0  0  0  0  0  0
   -4.4139   -1.3026    0.8313 C   0  0  0  0  0  0  0  0  0  0  0  0
   -2.4927   -0.1701   -0.1990 N   0  0  0  0  0  0  0  0  0  0  0  0
   -1.5048    0.4379    0.5250 C   0  0  0  0  0  0  0  0  0  0  0  0
   -0.3186    0.0250   -0.0392 C   0  0  0  0  0  0  0  0  0  0  0  0
   -0.6976   -0.8650   -1.0665 C   0  0  0  0  0  0  0  0  0  0  0  0
   -2.0255   -0.9906   -1.1552 N   0  0  0  0  0  0  0  0  0  0  0  0
    1.0383    0.3643    0.3513 C   0  0  0  0  0  0  0  0  0  0  0  0
    1.4238    1.0563    1.5101 C   0  0  0  0  0  0  0  0  0  0  0  0
    2.7478    1.2021    1.6044 N   0  0  0  0  0  0  0  0  0  0  0  0
    3.2397    0.6053    0.4850 N   0  0  0  0  0  0  0  0  0  0  0  0
    2.2202    0.0917   -0.2952 C   0  0  0  0  0  0  0  0  0  0  0  0
    4.6414    0.5589    0.2388 C   0  0  0  0  0  0  0  0  0  0  0  0
    5.1576   -0.0142   -0.9314 C   0  0  0  0  0  0  0  0  0  0  0  0
    6.5384   -0.0534   -1.1432 C   0  0  0  0  0  0  0  0  0  0  0  0
    7.4086    0.4757   -0.1951 C   0  0  0  0  0  0  0  0  0  0  0  0
    6.9022    1.0478    0.9684 C   0  0  0  0  0  0  0  0  0  0  0  0
    5.5245    1.0933    1.1868 C   0  0  0  0  0  0  0  0  0  0  0  0
   -6.6131    0.8437   -0.4173 H   0  0  0  0  0  0  0  0  0  0  0  0
   -6.8875   -0.5490   -1.5029 H   0  0  0  0  0  0  0  0  0  0  0  0
   -4.6188    0.9126   -1.7693 H   0  0  0  0  0  0  0  0  0  0  0  0
   -4.5637   -0.8441   -1.8894 H   0  0  0  0  0  0  0  0  0  0  0  0
   -4.0834    0.8179    0.6514 H   0  0  0  0  0  0  0  0  0  0  0  0
   -4.0939   -2.2456    0.3759 H   0  0  0  0  0  0  0  0  0  0  0  0
   -4.1245   -1.2885    1.8852 H   0  0  0  0  0  0  0  0  0  0  0  0
   -1.7253    1.0845    1.3661 H   0  0  0  0  0  0  0  0  0  0  0  0
   -0.0737   -1.4460   -1.7371 H   0  0  0  0  0  0  0  0  0  0  0  0
    0.8052    1.4582    2.3008 H   0  0  0  0  0  0  0  0  0  0  0  0
    2.4146   -0.4174   -1.2249 H   0  0  0  0  0  0  0  0  0  0  0  0
    4.5197   -0.4364   -1.6995 H   0  0  0  0  0  0  0  0  0  0  0  0
    6.9382   -0.5019   -2.0517 H   0  0  0  0  0  0  0  0  0  0  0  0
    8.4814    0.4402   -0.3634 H   0  0  0  0  0  0  0  0  0  0  0  0
    7.5790    1.4608    1.7098 H   0  0  0  0  0  0  0  0  0  0  0  0
    5.1533    1.5411    2.1052 H   0  0  0  0  0  0  0  0  0  0  0  0
  1  2  2  0
  2  3  2  0
  2  4  1  0
  4  5  1  0
  5  6  1  0
  6  7  1  0
  6  8  1  0
  8  9  1  0
  9 10  2  0
 10 11  1  0
 11 12  2  0
 10 13  1  0
 13 14  1  0
 14 15  2  0
 15 16  1  0
 16 17  1  0
 16 18  1  0
 18 19  2  0
 19 20  1  0
 20 21  2  0
 21 22  1  0
 22 23  2  0
  7  2  1  0
 12  8  1  0
 17 13  2  0
 23 18  1  0
  4 24  1  0
  4 25  1  0
  5 26  1  0
  5 27  1  0
  6 28  1  0
  7 29  1  0
  7 30  1  0
  9 31  1  0
 11 32  1  0
 14 33  1  0
 17 34  1  0
 19 35  1  0
 20 36  1  0
 21 37  1  0
 22 38  1  0
 23 39  1  0
M  END
>  <Unnamed: 0>  (198) 
1264

>  <ID>  (198) 
TRAIN_1264

>  <Canonical_Smiles>  (198) 
O=S1(=O)CCC(C1)n2cc(cn2)c3cnn(c3)c4ccccc4

>  <Inhibition>  (198) 
37.6

>  <TDC_conf_true_inhibitor>  (198) 
0

>  <TDC_conf_non_inhibitor>  (198) 
1

>  <split>  (198) 
1

$$$$
198
     RDKit          3D

 42 45  0  0  0  0  0  0  0  0999 V2000
   -2.1928   -3.1591    1.0396 C   0  0  0  0  0  0  0  0  0  0  0  0
   -2.4016   -1.7186    0.6770 C   0  0  0  0  0  0  0  0  0  0  0  0
   -3.4732   -0.9992    1.2172 C   0  0  0  0  0  0  0  0  0  0  0  0
   -3.6591    0.3569    0.9107 C   0  0  0  0  0  0  0  0  0  0  0  0
   -4.8235    1.1061    1.4954 C   0  0  0  0  0  0  0  0  0  0  0  0
   -2.7408    1.0019    0.0670 C   0  0  0  0  0  0  0  0  0  0  0  0
   -2.9826    2.3244   -0.2057 O   0  0  0  0  0  0  0  0  0  0  0  0
   -1.8702    3.0472   -0.7338 C   0  0  0  0  0  0  0  0  0  0  0  0
   -1.2230    2.3139   -1.8923 C   0  0  0  0  0  0  0  0  0  0  0  0
   -0.6810    0.9711   -1.4100 C   0  0  0  0  0  0  0  0  0  0  0  0
    0.5800    1.1790   -0.7162 N   0  0  0  0  0  0  0  0  0  0  0  0
    1.6889    0.3784   -0.8905 C   0  0  0  0  0  0  0  0  0  0  0  0
    1.8079   -0.3906   -1.9532 N   0  0  0  0  0  0  0  0  0  0  0  0
    2.9380   -1.1777   -2.0985 C   0  0  0  0  0  0  0  0  0  0  0  0
    3.9482   -1.2196   -1.2134 C   0  0  0  0  0  0  0  0  0  0  0  0
    3.8467   -0.4257   -0.0899 N   0  0  0  0  0  0  0  0  0  0  0  0
    4.6417   -0.2038    1.0073 C   0  0  0  0  0  0  0  0  0  0  0  0
    5.9481   -0.8575    1.2315 C   0  0  0  0  0  0  0  0  0  0  0  0
    4.0442    0.6698    1.8001 N   0  0  0  0  0  0  0  0  0  0  0  0
    2.8423    1.0323    1.2221 N   0  0  0  0  0  0  0  0  0  0  0  0
    2.7518    0.3667    0.0945 C   0  0  0  0  0  0  0  0  0  0  0  0
   -1.6618    0.2972   -0.4831 C   0  0  0  0  0  0  0  0  0  0  0  0
   -1.4971   -1.0614   -0.1630 C   0  0  0  0  0  0  0  0  0  0  0  0
   -1.7013   -3.7002    0.2242 H   0  0  0  0  0  0  0  0  0  0  0  0
   -3.1496   -3.6572    1.2286 H   0  0  0  0  0  0  0  0  0  0  0  0
   -1.5718   -3.2323    1.9377 H   0  0  0  0  0  0  0  0  0  0  0  0
   -4.1725   -1.5009    1.8836 H   0  0  0  0  0  0  0  0  0  0  0  0
   -5.4541    1.5107    0.6971 H   0  0  0  0  0  0  0  0  0  0  0  0
   -5.4505    0.4556    2.1142 H   0  0  0  0  0  0  0  0  0  0  0  0
   -4.4671    1.9251    2.1284 H   0  0  0  0  0  0  0  0  0  0  0  0
   -1.1599    3.2587    0.0747 H   0  0  0  0  0  0  0  0  0  0  0  0
   -2.2520    4.0127   -1.0826 H   0  0  0  0  0  0  0  0  0  0  0  0
   -1.9850    2.1332   -2.6620 H   0  0  0  0  0  0  0  0  0  0  0  0
   -0.4321    2.9232   -2.3443 H   0  0  0  0  0  0  0  0  0  0  0  0
   -0.5434    0.3443   -2.2999 H   0  0  0  0  0  0  0  0  0  0  0  0
    0.4927    1.5550    0.2254 H   0  0  0  0  0  0  0  0  0  0  0  0
    2.9719   -1.7842   -3.0006 H   0  0  0  0  0  0  0  0  0  0  0  0
    4.8266   -1.8377   -1.3368 H   0  0  0  0  0  0  0  0  0  0  0  0
    5.8338   -1.9446    1.2849 H   0  0  0  0  0  0  0  0  0  0  0  0
    6.6458   -0.6177    0.4233 H   0  0  0  0  0  0  0  0  0  0  0  0
    6.3913   -0.5175    2.1727 H   0  0  0  0  0  0  0  0  0  0  0  0
   -0.6540   -1.6100   -0.5814 H   0  0  0  0  0  0  0  0  0  0  0  0
  1  2  1  0
  2  3  2  0
  3  4  1  0
  4  5  1  0
  4  6  2  0
  6  7  1  0
  7  8  1  0
  8  9  1  0
  9 10  1  0
 10 11  1  0
 11 12  1  0
 12 13  2  0
 13 14  1  0
 14 15  2  0
 15 16  1  0
 16 17  1  0
 17 18  1  0
 17 19  2  0
 19 20  1  0
 20 21  2  0
 10 22  1  0
 22 23  2  0
 23  2  1  0
 22  6  1  0
 21 12  1  0
 21 16  1  0
  1 24  1  0
  1 25  1  0
  1 26  1  0
  3 27  1  0
  5 28  1  0
  5 29  1  0
  5 30  1  0
  8 31  1  0
  8 32  1  0
  9 33  1  0
  9 34  1  0
 10 35  1  0
 11 36  1  0
 14 37  1  0
 15 38  1  0
 18 39  1  0
 18 40  1  0
 18 41  1  0
 23 42  1  0
M  END
>  <Unnamed: 0>  (199) 
1266

>  <ID>  (199) 
TRAIN_1266

>  <Canonical_Smiles>  (199) 
Cc1cc(C)c2OCCC(Nc3nccn4c(C)nnc34)c2c1

>  <Inhibition>  (199) 
37.2

>  <TDC_conf_true_inhibitor>  (199) 
1

>  <TDC_conf_non_inhibitor>  (199) 
0

>  <split>  (199) 
1

$$$$
199
     RDKit          3D

 46 47  0  0  0  0  0  0  0  0999 V2000
   -5.6867   -0.1446   -1.5359 C   0  0  0  0  0  0  0  0  0  0  0  0
   -4.3094   -0.5169   -0.9944 C   0  0  0  0  0  0  0  0  0  0  0  0
   -3.5114    0.6102   -0.2601 C   0  0  0  0  0  0  0  0  0  0  0  0
   -4.4068    1.2444    0.8293 C   0  0  0  0  0  0  0  0  0  0  0  0
   -3.1398    1.7161   -1.2698 C   0  0  0  0  0  0  0  0  0  0  0  0
   -2.2216   -0.0266    0.4118 C   0  0  0  0  0  0  0  0  0  0  0  0
   -1.4100    0.9640    1.2881 C   0  0  0  0  0  0  0  0  0  0  0  0
   -0.2235    0.2952    1.9780 C   0  0  0  0  0  0  0  0  0  0  0  0
    0.6395   -0.3786    0.9354 C   0  0  0  0  0  0  0  0  0  0  0  0
    1.8951   -0.0483    0.8823 N   0  0  0  0  0  0  0  0  0  0  0  0
    2.6824   -0.6094   -0.0762 N   0  0  0  0  0  0  0  0  0  0  0  0
    4.0409   -0.4321   -0.1581 C   0  0  0  0  0  0  0  0  0  0  0  0
    4.7141   -0.8489   -1.1888 N   0  0  0  0  0  0  0  0  0  0  0  0
    6.1039   -0.6600   -1.2562 N   0  0  0  0  0  0  0  0  0  0  0  0
    6.7022   -0.0507   -0.2792 C   0  0  0  0  0  0  0  0  0  0  0  0
    8.1836    0.1746   -0.3086 C   0  0  0  0  0  0  0  0  0  0  0  0
    5.9546    0.4599    0.9253 C   0  0  0  0  0  0  0  0  0  0  0  0
    6.5325    1.0506    1.8241 O   0  0  0  0  0  0  0  0  0  0  0  0
    4.6250    0.2010    0.8930 N   0  0  0  0  0  0  0  0  0  0  0  0
   -0.0811   -1.3915    0.0760 C   0  0  0  0  0  0  0  0  0  0  0  0
   -1.2650   -0.7061   -0.6043 C   0  0  0  0  0  0  0  0  0  0  0  0
   -6.3914    0.0801   -0.7305 H   0  0  0  0  0  0  0  0  0  0  0  0
   -6.1009   -0.9890   -2.0976 H   0  0  0  0  0  0  0  0  0  0  0  0
   -5.6413    0.7105   -2.2152 H   0  0  0  0  0  0  0  0  0  0  0  0
   -3.7265   -0.8821   -1.8477 H   0  0  0  0  0  0  0  0  0  0  0  0
   -4.4371   -1.3696   -0.3152 H   0  0  0  0  0  0  0  0  0  0  0  0
   -4.6866    0.5054    1.5878 H   0  0  0  0  0  0  0  0  0  0  0  0
   -5.3277    1.6619    0.4094 H   0  0  0  0  0  0  0  0  0  0  0  0
   -3.9103    2.0800    1.3321 H   0  0  0  0  0  0  0  0  0  0  0  0
   -2.5304    2.4992   -0.8087 H   0  0  0  0  0  0  0  0  0  0  0  0
   -4.0323    2.2113   -1.6675 H   0  0  0  0  0  0  0  0  0  0  0  0
   -2.5854    1.3150   -2.1239 H   0  0  0  0  0  0  0  0  0  0  0  0
   -2.5805   -0.8172    1.0879 H   0  0  0  0  0  0  0  0  0  0  0  0
   -2.0394    1.3976    2.0705 H   0  0  0  0  0  0  0  0  0  0  0  0
   -1.0375    1.7898    0.6713 H   0  0  0  0  0  0  0  0  0  0  0  0
   -0.5665   -0.4656    2.6877 H   0  0  0  0  0  0  0  0  0  0  0  0
    0.3612    1.0372    2.5321 H   0  0  0  0  0  0  0  0  0  0  0  0
    2.2892   -0.9729   -0.9405 H   0  0  0  0  0  0  0  0  0  0  0  0
    8.3919    1.2474   -0.2754 H   0  0  0  0  0  0  0  0  0  0  0  0
    8.6149   -0.2417   -1.2232 H   0  0  0  0  0  0  0  0  0  0  0  0
    8.6457   -0.3126    0.5543 H   0  0  0  0  0  0  0  0  0  0  0  0
    4.0221    0.5116    1.6391 H   0  0  0  0  0  0  0  0  0  0  0  0
   -0.4369   -2.1946    0.7322 H   0  0  0  0  0  0  0  0  0  0  0  0
    0.5622   -1.8530   -0.6737 H   0  0  0  0  0  0  0  0  0  0  0  0
   -1.7935   -1.4670   -1.1857 H   0  0  0  0  0  0  0  0  0  0  0  0
   -0.8814    0.0389   -1.3113 H   0  0  0  0  0  0  0  0  0  0  0  0
  1  2  1  0
  2  3  1  0
  3  4  1  0
  3  5  1  0
  3  6  1  0
  6  7  1  0
  7  8  1  0
  8  9  1  0
  9 10  2  3
 10 11  1  0
 11 12  1  0
 12 13  2  0
 13 14  1  0
 14 15  2  0
 15 16  1  0
 15 17  1  0
 17 18  2  0
 17 19  1  0
  9 20  1  0
 20 21  1  0
 21  6  1  0
 19 12  1  0
  1 22  1  0
  1 23  1  0
  1 24  1  0
  2 25  1  0
  2 26  1  0
  4 27  1  0
  4 28  1  0
  4 29  1  0
  5 30  1  0
  5 31  1  0
  5 32  1  0
  6 33  1  0
  7 34  1  0
  7 35  1  0
  8 36  1  0
  8 37  1  0
 11 38  1  0
 16 39  1  0
 16 40  1  0
 16 41  1  0
 19 42  1  0
 20 43  1  0
 20 44  1  0
 21 45  1  0
 21 46  1  0
M  END
>  <Unnamed: 0>  (200) 
1271

>  <ID>  (200) 
TRAIN_1271

>  <Canonical_Smiles>  (200) 
CCC(C)(C)C1CCC(=NNC2=NN=C(C)C(=O)N2)CC1

>  <Inhibition>  (200) 
36.4

>  <TDC_conf_true_inhibitor>  (200) 
0

>  <TDC_conf_non_inhibitor>  (200) 
1

>  <split>  (200) 
1

$$$$
200
     RDKit          3D

 51 52  0  0  0  0  0  0  0  0999 V2000
   -3.9152   -2.8017    0.0807 C   0  0  0  0  0  0  0  0  0  0  0  0
   -2.8538   -1.8284   -0.4584 C   0  0  0  0  0  0  0  0  0  0  0  0
   -1.6197   -2.6519   -0.8490 C   0  0  0  0  0  0  0  0  0  0  0  0
   -2.5432   -0.6822    0.5682 C   0  0  0  0  0  0  0  0  0  0  0  0
   -3.8106    0.0904    1.0004 C   0  0  0  0  0  0  0  0  0  0  0  0
   -4.3953    0.9321   -0.1369 C   0  0  0  0  0  0  0  0  0  0  0  0
   -3.3767    1.9002   -0.7603 C   0  0  0  0  0  0  0  0  0  0  0  0
   -3.1646    3.1299    0.1295 C   0  0  0  0  0  0  0  0  0  0  0  0
   -2.0434    1.2031   -1.0736 C   0  0  0  0  0  0  0  0  0  0  0  0
   -1.5096    0.3833    0.1095 C   0  0  0  0  0  0  0  0  0  0  0  0
   -0.2608   -0.2388   -0.2314 O   0  0  0  0  0  0  0  0  0  0  0  0
    0.8585    0.5418   -0.1401 C   0  0  0  0  0  0  0  0  0  0  0  0
    0.8673    1.7104    0.2208 O   0  0  0  0  0  0  0  0  0  0  0  0
    2.0722   -0.2985   -0.5517 C   0  0  0  0  0  0  0  0  0  0  0  0
    3.3464    0.4586   -0.4985 N   0  0  0  0  0  0  0  0  0  0  0  0
    4.3769   -0.1970   -1.3179 C   0  0  0  0  0  0  0  0  0  0  0  0
    5.7597    0.3871   -1.0974 C   0  0  0  0  0  0  0  0  0  0  0  0
    6.3159   -0.0391    0.5370 S   0  0  0  0  0  6  0  0  0  0  0  0
    7.0934    1.0723    1.0509 O   0  0  0  0  0  0  0  0  0  0  0  0
    6.8817   -1.3747    0.4796 O   0  0  0  0  0  0  0  0  0  0  0  0
    4.8049   -0.1400    1.4696 C   0  0  0  0  0  0  0  0  0  0  0  0
    3.7659    0.7928    0.8750 C   0  0  0  0  0  0  0  0  0  0  0  0
   -4.8939   -2.3216    0.1695 H   0  0  0  0  0  0  0  0  0  0  0  0
   -4.0503   -3.6520   -0.5971 H   0  0  0  0  0  0  0  0  0  0  0  0
   -3.6294   -3.1950    1.0620 H   0  0  0  0  0  0  0  0  0  0  0  0
   -3.2564   -1.3970   -1.3819 H   0  0  0  0  0  0  0  0  0  0  0  0
   -1.9051   -3.5574   -1.3963 H   0  0  0  0  0  0  0  0  0  0  0  0
   -1.0496   -2.9604    0.0333 H   0  0  0  0  0  0  0  0  0  0  0  0
   -0.9622   -2.0921   -1.5195 H   0  0  0  0  0  0  0  0  0  0  0  0
   -2.1280   -1.1710    1.4611 H   0  0  0  0  0  0  0  0  0  0  0  0
   -3.5559    0.7497    1.8403 H   0  0  0  0  0  0  0  0  0  0  0  0
   -4.5765   -0.5846    1.3937 H   0  0  0  0  0  0  0  0  0  0  0  0
   -5.2653    1.4880    0.2332 H   0  0  0  0  0  0  0  0  0  0  0  0
   -4.7758    0.2654   -0.9200 H   0  0  0  0  0  0  0  0  0  0  0  0
   -3.7956    2.2666   -1.7067 H   0  0  0  0  0  0  0  0  0  0  0  0
   -2.7607    2.8693    1.1119 H   0  0  0  0  0  0  0  0  0  0  0  0
   -2.4699    3.8325   -0.3433 H   0  0  0  0  0  0  0  0  0  0  0  0
   -4.1113    3.6578    0.2873 H   0  0  0  0  0  0  0  0  0  0  0  0
   -1.2983    1.9436   -1.3891 H   0  0  0  0  0  0  0  0  0  0  0  0
   -2.1679    0.5471   -1.9443 H   0  0  0  0  0  0  0  0  0  0  0  0
   -1.3339    1.0476    0.9660 H   0  0  0  0  0  0  0  0  0  0  0  0
    2.1266   -1.1874    0.0873 H   0  0  0  0  0  0  0  0  0  0  0  0
    1.8815   -0.6132   -1.5854 H   0  0  0  0  0  0  0  0  0  0  0  0
    4.3978   -1.2772   -1.1209 H   0  0  0  0  0  0  0  0  0  0  0  0
    4.1111   -0.0686   -2.3739 H   0  0  0  0  0  0  0  0  0  0  0  0
    6.4826   -0.0245   -1.8080 H   0  0  0  0  0  0  0  0  0  0  0  0
    5.7584    1.4776   -1.1914 H   0  0  0  0  0  0  0  0  0  0  0  0
    4.4605   -1.1789    1.4564 H   0  0  0  0  0  0  0  0  0  0  0  0
    5.0391    0.1358    2.5021 H   0  0  0  0  0  0  0  0  0  0  0  0
    2.9081    0.8374    1.5555 H   0  0  0  0  0  0  0  0  0  0  0  0
    4.1706    1.8129    0.8535 H   0  0  0  0  0  0  0  0  0  0  0  0
  1  2  1  0
  2  3  1  0
  2  4  1  0
  4  5  1  0
  5  6  1  0
  6  7  1  0
  7  8  1  0
  7  9  1  0
  9 10  1  0
 10 11  1  0
 11 12  1  0
 12 13  2  0
 12 14  1  0
 14 15  1  0
 15 16  1  0
 16 17  1  0
 17 18  1  0
 18 19  2  0
 18 20  2  0
 18 21  1  0
 21 22  1  0
 10  4  1  0
 22 15  1  0
  1 23  1  0
  1 24  1  0
  1 25  1  0
  2 26  1  0
  3 27  1  0
  3 28  1  0
  3 29  1  0
  4 30  1  0
  5 31  1  0
  5 32  1  0
  6 33  1  0
  6 34  1  0
  7 35  1  0
  8 36  1  0
  8 37  1  0
  8 38  1  0
  9 39  1  0
  9 40  1  0
 10 41  1  0
 14 42  1  0
 14 43  1  0
 16 44  1  0
 16 45  1  0
 17 46  1  0
 17 47  1  0
 21 48  1  0
 21 49  1  0
 22 50  1  0
 22 51  1  0
M  END
>  <Unnamed: 0>  (201) 
1272

>  <ID>  (201) 
TRAIN_1272

>  <Canonical_Smiles>  (201) 
CC(C)C1CCC(C)CC1OC(=O)CN2CCS(=O)(=O)CC2

>  <Inhibition>  (201) 
29.2

>  <TDC_conf_true_inhibitor>  (201) 
0

>  <TDC_conf_non_inhibitor>  (201) 
1

>  <split>  (201) 
1

$$$$
201
     RDKit          3D

 44 48  0  0  0  0  0  0  0  0999 V2000
    0.3131   -3.3009   -1.8435 C   0  0  0  0  0  0  0  0  0  0  0  0
   -0.4019   -3.0812   -0.5116 C   0  0  0  0  0  0  0  0  0  0  0  0
    0.2439   -4.2057    0.7558 S   0  0  0  0  0  0  0  0  0  0  0  0
    1.6489   -3.3118    1.1890 C   0  0  0  0  0  0  0  0  0  0  0  0
    2.7424   -3.7715    1.7424 N   0  0  0  0  0  0  0  0  0  0  0  0
    3.5689   -2.6936    1.9532 N   0  0  0  0  0  0  0  0  0  0  0  0
    2.9478   -1.6050    1.5282 C   0  0  0  0  0  0  0  0  0  0  0  0
    3.4805   -0.2228    1.5926 C   0  0  0  0  0  0  0  0  0  0  0  0
    2.7659    0.6828    2.5818 C   0  0  0  0  0  0  0  0  0  0  0  0
    2.9630    2.0392    1.9523 C   0  0  0  0  0  0  0  0  0  0  0  0
    2.8498    1.7206    0.4776 C   0  0  0  0  0  0  0  0  0  0  0  0
    3.3797    0.4000    0.2956 O   0  0  0  0  0  0  0  0  0  0  0  0
    1.7099   -1.9498    1.0222 N   0  0  0  0  0  0  0  0  0  0  0  0
    0.7487   -1.0934    0.5597 N   0  0  0  0  0  0  0  0  0  0  0  0
   -0.2588   -1.6185   -0.0799 C   0  0  0  0  0  0  0  0  0  0  0  0
   -1.3286   -0.6883   -0.5377 C   0  0  0  0  0  0  0  0  0  0  0  0
   -2.6836   -0.9801   -0.2951 C   0  0  0  0  0  0  0  0  0  0  0  0
   -3.6823   -0.1073   -0.7358 C   0  0  0  0  0  0  0  0  0  0  0  0
   -3.3018    1.0503   -1.3942 C   0  0  0  0  0  0  0  0  0  0  0  0
   -4.1838    2.1088   -1.9810 C   0  0  0  0  0  0  0  0  0  0  0  0
   -3.1871    3.2636   -2.1577 C   0  0  0  0  0  0  0  0  0  0  0  0
   -1.8088    2.6259   -2.3843 C   0  0  0  0  0  0  0  0  0  0  0  0
   -1.9533    1.3451   -1.6236 C   0  0  0  0  0  0  0  0  0  0  0  0
   -0.9533    0.4852   -1.2036 C   0  0  0  0  0  0  0  0  0  0  0  0
   -0.1216   -2.6599   -2.6191 H   0  0  0  0  0  0  0  0  0  0  0  0
    1.3791   -3.0531   -1.7900 H   0  0  0  0  0  0  0  0  0  0  0  0
    0.2153   -4.3379   -2.1831 H   0  0  0  0  0  0  0  0  0  0  0  0
   -1.4558   -3.3384   -0.6472 H   0  0  0  0  0  0  0  0  0  0  0  0
    4.5503   -0.2585    1.8335 H   0  0  0  0  0  0  0  0  0  0  0  0
    1.6944    0.4605    2.6475 H   0  0  0  0  0  0  0  0  0  0  0  0
    3.1790    0.6116    3.5926 H   0  0  0  0  0  0  0  0  0  0  0  0
    3.9698    2.4094    2.1790 H   0  0  0  0  0  0  0  0  0  0  0  0
    2.2390    2.7876    2.2848 H   0  0  0  0  0  0  0  0  0  0  0  0
    3.4015    2.4275   -0.1483 H   0  0  0  0  0  0  0  0  0  0  0  0
    1.8040    1.7129    0.1547 H   0  0  0  0  0  0  0  0  0  0  0  0
   -2.9737   -1.8741    0.2511 H   0  0  0  0  0  0  0  0  0  0  0  0
   -4.7302   -0.3301   -0.5578 H   0  0  0  0  0  0  0  0  0  0  0  0
   -5.0039    2.3883   -1.3138 H   0  0  0  0  0  0  0  0  0  0  0  0
   -4.5800    1.7762   -2.9458 H   0  0  0  0  0  0  0  0  0  0  0  0
   -3.1598    3.8586   -1.2339 H   0  0  0  0  0  0  0  0  0  0  0  0
   -3.4724    3.9416   -2.9682 H   0  0  0  0  0  0  0  0  0  0  0  0
   -1.0072    3.2581   -1.9924 H   0  0  0  0  0  0  0  0  0  0  0  0
   -1.6387    2.4166   -3.4454 H   0  0  0  0  0  0  0  0  0  0  0  0
    0.0918    0.7116   -1.3923 H   0  0  0  0  0  0  0  0  0  0  0  0
  1  2  1  0
  2  3  1  0
  3  4  1  0
  4  5  2  0
  5  6  1  0
  6  7  2  0
  7  8  1  0
  8  9  1  0
  9 10  1  0
 10 11  1  0
 11 12  1  0
  7 13  1  0
 13 14  1  0
 14 15  2  0
 15 16  1  0
 16 17  2  0
 17 18  1  0
 18 19  2  0
 19 20  1  0
 20 21  1  0
 21 22  1  0
 22 23  1  0
 23 24  2  0
 15  2  1  0
 13  4  1  0
 12  8  1  0
 24 16  1  0
 23 19  1  0
  1 25  1  0
  1 26  1  0
  1 27  1  0
  2 28  1  0
  8 29  1  0
  9 30  1  0
  9 31  1  0
 10 32  1  0
 10 33  1  0
 11 34  1  0
 11 35  1  0
 17 36  1  0
 18 37  1  0
 20 38  1  0
 20 39  1  0
 21 40  1  0
 21 41  1  0
 22 42  1  0
 22 43  1  0
 24 44  1  0
M  END
>  <Unnamed: 0>  (202) 
1274

>  <ID>  (202) 
TRAIN_1274

>  <Canonical_Smiles>  (202) 
CC1Sc2nnc(C3CCCO3)n2N=C1c4ccc5CCCc5c4

>  <Inhibition>  (202) 
23.6

>  <TDC_conf_true_inhibitor>  (202) 
0

>  <TDC_conf_non_inhibitor>  (202) 
1

>  <split>  (202) 
1

$$$$
202
     RDKit          3D

 40 42  0  0  0  0  0  0  0  0999 V2000
   -1.9078   -2.9467    3.2028 C   0  0  0  0  0  0  0  0  0  0  0  0
   -1.3066   -3.3432    1.8528 C   0  0  0  0  0  0  0  0  0  0  0  0
   -2.3675   -3.9899    0.9623 C   0  0  0  0  0  0  0  0  0  0  0  0
   -0.7080   -2.1478    1.1632 C   0  0  0  0  0  0  0  0  0  0  0  0
   -1.2842   -0.9595    1.0578 N   0  0  0  0  0  0  0  0  0  0  0  0
   -0.4075   -0.1905    0.3494 C   0  0  0  0  0  0  0  0  0  0  0  0
   -0.5919    1.2461   -0.0356 C   0  0  0  0  0  0  0  0  0  0  0  0
    0.4573    1.7216   -0.9925 N   0  0  0  0  0  0  0  0  0  0  0  0
    1.8265    1.2182   -0.6690 C   0  0  0  0  0  0  0  0  0  0  0  0
    1.8849   -0.3375   -0.7126 C   0  0  0  0  0  0  0  0  0  0  0  0
    0.7310   -0.8984    0.0423 C   0  0  0  0  0  0  0  0  0  0  0  0
    0.5236   -2.1555    0.5296 N   0  0  0  0  0  0  0  0  0  0  0  0
    1.4054   -3.2879    0.3901 C   0  0  0  0  0  0  0  0  0  0  0  0
    0.3884    3.0284   -1.4868 C   0  0  0  0  0  0  0  0  0  0  0  0
   -0.1933    4.0742   -0.7554 C   0  0  0  0  0  0  0  0  0  0  0  0
   -0.2484    5.3714   -1.2687 C   0  0  0  0  0  0  0  0  0  0  0  0
    0.2814    5.6096   -2.5215 C   0  0  0  0  0  0  0  0  0  0  0  0
    0.8455    4.6524   -3.2799 N   0  0  0  0  0  0  0  0  0  0  0  0
    0.8805    3.3907   -2.7597 C   0  0  0  0  0  0  0  0  0  0  0  0
    1.4430    2.4131   -3.6568 C   0  0  0  0  0  0  0  0  0  0  0  0
    1.9227    1.6208   -4.3618 N   0  0  0  0  0  0  0  0  0  0  0  0
   -2.7268   -2.2271    3.0867 H   0  0  0  0  0  0  0  0  0  0  0  0
   -1.1503   -2.4873    3.8484 H   0  0  0  0  0  0  0  0  0  0  0  0
   -2.3045   -3.8252    3.7228 H   0  0  0  0  0  0  0  0  0  0  0  0
   -0.5273   -4.0877    2.0522 H   0  0  0  0  0  0  0  0  0  0  0  0
   -1.9384   -4.2987    0.0019 H   0  0  0  0  0  0  0  0  0  0  0  0
   -3.1907   -3.2980    0.7501 H   0  0  0  0  0  0  0  0  0  0  0  0
   -2.7891   -4.8788    1.4433 H   0  0  0  0  0  0  0  0  0  0  0  0
   -0.5551    1.8336    0.8892 H   0  0  0  0  0  0  0  0  0  0  0  0
   -1.5811    1.3682   -0.4922 H   0  0  0  0  0  0  0  0  0  0  0  0
    2.5868    1.6102   -1.3529 H   0  0  0  0  0  0  0  0  0  0  0  0
    2.0976    1.5685    0.3365 H   0  0  0  0  0  0  0  0  0  0  0  0
    1.8294   -0.6755   -1.7541 H   0  0  0  0  0  0  0  0  0  0  0  0
    2.8373   -0.6766   -0.2919 H   0  0  0  0  0  0  0  0  0  0  0  0
    0.8331   -4.1348    0.0021 H   0  0  0  0  0  0  0  0  0  0  0  0
    1.8248   -3.5199    1.3723 H   0  0  0  0  0  0  0  0  0  0  0  0
    2.2098   -3.0506   -0.3102 H   0  0  0  0  0  0  0  0  0  0  0  0
   -0.5990    3.9098    0.2385 H   0  0  0  0  0  0  0  0  0  0  0  0
   -0.6946    6.1772   -0.6954 H   0  0  0  0  0  0  0  0  0  0  0  0
    0.2627    6.6032   -2.9606 H   0  0  0  0  0  0  0  0  0  0  0  0
  1  2  1  0
  2  3  1  0
  2  4  1  0
  4  5  2  0
  5  6  1  0
  6  7  1  0
  7  8  1  0
  8  9  1  0
  9 10  1  0
 10 11  1  0
 11 12  1  0
 12 13  1  0
  8 14  1  0
 14 15  2  0
 15 16  1  0
 16 17  2  0
 17 18  1  0
 18 19  2  0
 19 20  1  0
 20 21  3  0
 12  4  1  0
 11  6  2  0
 19 14  1  0
  1 22  1  0
  1 23  1  0
  1 24  1  0
  2 25  1  0
  3 26  1  0
  3 27  1  0
  3 28  1  0
  7 29  1  0
  7 30  1  0
  9 31  1  0
  9 32  1  0
 10 33  1  0
 10 34  1  0
 13 35  1  0
 13 36  1  0
 13 37  1  0
 15 38  1  0
 16 39  1  0
 17 40  1  0
M  END
>  <Unnamed: 0>  (203) 
1283

>  <ID>  (203) 
TRAIN_1283

>  <Canonical_Smiles>  (203) 
CC(C)c1nc2CN(CCc2n1C)c3cccnc3C#N

>  <Inhibition>  (203) 
28.1

>  <TDC_conf_true_inhibitor>  (203) 
0

>  <TDC_conf_non_inhibitor>  (203) 
1

>  <split>  (203) 
1

$$$$
203
     RDKit          3D

 48 52  0  0  0  0  0  0  0  0999 V2000
    5.7197   -1.4952   -1.0359 F   0  0  0  0  0  0  0  0  0  0  0  0
    6.2163   -0.6997   -0.0776 C   0  0  0  0  0  0  0  0  0  0  0  0
    7.5994   -0.7009    0.1125 C   0  0  0  0  0  0  0  0  0  0  0  0
    8.1662    0.0949    1.1056 C   0  0  0  0  0  0  0  0  0  0  0  0
    7.3423    0.8882    1.9014 C   0  0  0  0  0  0  0  0  0  0  0  0
    5.9598    0.8819    1.7032 C   0  0  0  0  0  0  0  0  0  0  0  0
    5.2205    1.6856    2.4802 F   0  0  0  0  0  0  0  0  0  0  0  0
    5.3780    0.0888    0.7120 C   0  0  0  0  0  0  0  0  0  0  0  0
    3.9164    0.0843    0.5166 C   0  0  0  0  0  0  0  0  0  0  0  0
    3.0657    0.4435    1.4246 N   0  0  0  0  0  0  0  0  0  0  0  0
    1.7756    0.3025    0.8597 O   0  0  0  0  0  0  0  0  0  0  0  0
    1.9307    0.2749   -0.5687 C   0  0  0  0  0  0  0  0  0  0  0  0
    0.8023   -0.5371   -1.2288 C   0  0  0  0  0  0  0  0  0  0  0  0
   -0.4667    0.1997   -1.4065 N   0  0  0  0  0  0  0  0  0  0  0  0
   -1.4571   -0.6030   -2.1656 C   0  0  0  0  0  0  0  0  0  0  0  0
   -2.6385   -1.1492   -1.3324 C   0  0  0  0  0  0  0  0  0  0  0  0
   -3.3729   -0.0360   -0.7123 N   0  0  0  0  0  0  0  0  0  0  0  0
   -2.5294    1.0531   -0.1794 C   0  0  0  0  0  0  0  0  0  0  0  0
   -1.0341    0.6540   -0.1149 C   0  0  0  0  0  0  0  0  0  0  0  0
   -4.4741   -0.4045    0.0635 C   0  0  0  0  0  0  0  0  0  0  0  0
   -4.6355   -1.7088    0.4059 N   0  0  0  0  0  0  0  0  0  0  0  0
   -5.6864   -2.0729    1.1532 C   0  0  0  0  0  0  0  0  0  0  0  0
   -6.6612   -1.2932    1.6195 N   0  0  0  0  0  0  0  0  0  0  0  0
   -6.5444    0.0049    1.2528 C   0  0  0  0  0  0  0  0  0  0  0  0
   -7.4784    1.0250    1.6028 C   0  0  0  0  0  0  0  0  0  0  0  0
   -7.1372    2.2506    1.0835 C   0  0  0  0  0  0  0  0  0  0  0  0
   -5.6985    2.1740    0.1708 S   0  0  0  0  0  0  0  0  0  0  0  0
   -5.4864    0.4858    0.4828 C   0  0  0  0  0  0  0  0  0  0  0  0
    3.2863   -0.3721   -0.7561 C   0  0  0  0  0  0  0  0  0  0  0  0
    8.2254   -1.3290   -0.5155 H   0  0  0  0  0  0  0  0  0  0  0  0
    9.2427    0.0975    1.2596 H   0  0  0  0  0  0  0  0  0  0  0  0
    7.7640    1.5192    2.6792 H   0  0  0  0  0  0  0  0  0  0  0  0
    1.9421    1.3091   -0.9365 H   0  0  0  0  0  0  0  0  0  0  0  0
    1.1539   -0.8299   -2.2266 H   0  0  0  0  0  0  0  0  0  0  0  0
    0.6201   -1.4557   -0.6556 H   0  0  0  0  0  0  0  0  0  0  0  0
   -1.8639    0.0550   -2.9447 H   0  0  0  0  0  0  0  0  0  0  0  0
   -0.9789   -1.4342   -2.6984 H   0  0  0  0  0  0  0  0  0  0  0  0
   -2.2530   -1.8452   -0.5754 H   0  0  0  0  0  0  0  0  0  0  0  0
   -3.3059   -1.7075   -2.0007 H   0  0  0  0  0  0  0  0  0  0  0  0
   -2.8320    1.3534    0.8314 H   0  0  0  0  0  0  0  0  0  0  0  0
   -2.6397    1.9266   -0.8331 H   0  0  0  0  0  0  0  0  0  0  0  0
   -0.9319   -0.1356    0.6420 H   0  0  0  0  0  0  0  0  0  0  0  0
   -0.4700    1.5247    0.2379 H   0  0  0  0  0  0  0  0  0  0  0  0
   -5.7491   -3.1261    1.4076 H   0  0  0  0  0  0  0  0  0  0  0  0
   -8.3621    0.8515    2.2027 H   0  0  0  0  0  0  0  0  0  0  0  0
   -7.6689    3.1865    1.1890 H   0  0  0  0  0  0  0  0  0  0  0  0
    3.2308   -1.4656   -0.7514 H   0  0  0  0  0  0  0  0  0  0  0  0
    3.7979   -0.0138   -1.6517 H   0  0  0  0  0  0  0  0  0  0  0  0
  1  2  1  0
  2  3  2  0
  3  4  1  0
  4  5  2  0
  5  6  1  0
  6  7  1  0
  6  8  2  0
  8  9  1  0
  9 10  2  0
 10 11  1  0
 11 12  1  0
 12 13  1  0
 13 14  1  0
 14 15  1  0
 15 16  1  0
 16 17  1  0
 17 18  1  0
 18 19  1  0
 17 20  1  0
 20 21  2  0
 21 22  1  0
 22 23  2  0
 23 24  1  0
 24 25  1  0
 25 26  2  0
 26 27  1  0
 27 28  1  0
 12 29  1  0
  8  2  1  0
 29  9  1  0
 19 14  1  0
 28 20  1  0
 28 24  2  0
  3 30  1  0
  4 31  1  0
  5 32  1  0
 12 33  1  0
 13 34  1  0
 13 35  1  0
 15 36  1  0
 15 37  1  0
 16 38  1  0
 16 39  1  0
 18 40  1  0
 18 41  1  0
 19 42  1  0
 19 43  1  0
 22 44  1  0
 25 45  1  0
 26 46  1  0
 29 47  1  0
 29 48  1  0
M  END
>  <Unnamed: 0>  (204) 
1287

>  <ID>  (204) 
TRAIN_1287

>  <Canonical_Smiles>  (204) 
Fc1cccc(F)c1C2=NOC(CN3CCN(CC3)c4ncnc5ccsc45)C2

>  <Inhibition>  (204) 
50.0

>  <TDC_conf_true_inhibitor>  (204) 
1

>  <TDC_conf_non_inhibitor>  (204) 
0

>  <split>  (204) 
1

$$$$
204
     RDKit          3D

 60 62  0  0  0  0  0  0  0  0999 V2000
    0.7583   -0.6465   -1.9703 C   0  0  0  0  0  0  0  0  0  0  0  0
    1.6535   -0.2739   -0.8441 C   0  0  0  0  0  0  0  0  0  0  0  0
    3.0841   -0.1823   -0.9110 C   0  0  0  0  0  0  0  0  0  0  0  0
    4.0684   -0.4272   -2.0064 C   0  0  0  0  0  0  0  0  0  0  0  0
    3.6429    0.1616   -3.2316 O   0  0  0  0  0  0  0  0  0  0  0  0
    5.4606    0.1477   -1.6354 C   0  0  0  0  0  0  0  0  0  0  0  0
    5.9113   -0.1421   -0.1669 C   0  0  0  0  0  0  0  0  0  0  0  0
    7.2685    0.5349    0.0839 C   0  0  0  0  0  0  0  0  0  0  0  0
    6.0840   -1.6568    0.0434 C   0  0  0  0  0  0  0  0  0  0  0  0
    4.8724    0.4286    0.8459 C   0  0  0  0  0  0  0  0  0  0  0  0
    3.4953    0.1836    0.3474 C   0  0  0  0  0  0  0  0  0  0  0  0
    2.4520    0.3555    1.1782 O   0  0  0  0  0  0  0  0  0  0  0  0
    1.3039    0.0758    0.4667 C   0  0  0  0  0  0  0  0  0  0  0  0
    0.0566    0.2116    1.2128 C   0  0  0  0  0  0  0  0  0  0  0  0
   -0.0089    0.7284    2.3312 O   0  0  0  0  0  0  0  0  0  0  0  0
   -1.0873   -0.2870    0.6127 N   0  0  0  0  0  0  0  0  0  0  0  0
   -2.4004   -0.1497    1.2319 C   0  0  0  0  0  0  0  0  0  0  0  0
   -3.3608   -1.2278    0.7207 C   0  0  0  0  0  0  0  0  0  0  0  0
   -4.8374   -0.8592    0.9498 C   0  0  0  0  0  0  0  0  0  0  0  0
   -5.7256   -1.9248    0.2842 C   0  0  0  0  0  0  0  0  0  0  0  0
   -5.1678   -0.8510    2.4527 C   0  0  0  0  0  0  0  0  0  0  0  0
   -5.2136    0.4284    0.3427 N   0  0  0  0  0  0  0  0  0  0  0  0
   -4.1285    1.4011    0.0860 C   0  0  0  0  0  0  0  0  0  0  0  0
   -4.7240    2.8207    0.2283 C   0  0  0  0  0  0  0  0  0  0  0  0
   -3.6528    1.2565   -1.3713 C   0  0  0  0  0  0  0  0  0  0  0  0
   -2.9592    1.2725    1.0808 C   0  0  0  0  0  0  0  0  0  0  0  0
    1.3002   -0.7438   -2.9059 H   0  0  0  0  0  0  0  0  0  0  0  0
   -0.0178    0.1068   -2.1200 H   0  0  0  0  0  0  0  0  0  0  0  0
    0.2822   -1.6062   -1.7760 H   0  0  0  0  0  0  0  0  0  0  0  0
    4.1529   -1.5080   -2.1694 H   0  0  0  0  0  0  0  0  0  0  0  0
    4.3612    0.0312   -3.8751 H   0  0  0  0  0  0  0  0  0  0  0  0
    6.2016   -0.2420   -2.3475 H   0  0  0  0  0  0  0  0  0  0  0  0
    5.4501    1.2362   -1.7971 H   0  0  0  0  0  0  0  0  0  0  0  0
    7.1993    1.6211   -0.0405 H   0  0  0  0  0  0  0  0  0  0  0  0
    8.0264    0.1705   -0.6147 H   0  0  0  0  0  0  0  0  0  0  0  0
    7.6264    0.3416    1.1002 H   0  0  0  0  0  0  0  0  0  0  0  0
    6.8296   -2.0668   -0.6463 H   0  0  0  0  0  0  0  0  0  0  0  0
    6.4153   -1.8750    1.0600 H   0  0  0  0  0  0  0  0  0  0  0  0
    5.1543   -2.2055   -0.1160 H   0  0  0  0  0  0  0  0  0  0  0  0
    5.0087    1.5158    0.9549 H   0  0  0  0  0  0  0  0  0  0  0  0
    5.0122   -0.0202    1.8403 H   0  0  0  0  0  0  0  0  0  0  0  0
   -1.0256   -0.7079   -0.3016 H   0  0  0  0  0  0  0  0  0  0  0  0
   -2.2461   -0.3230    2.3048 H   0  0  0  0  0  0  0  0  0  0  0  0
   -3.1877   -1.4204   -0.3456 H   0  0  0  0  0  0  0  0  0  0  0  0
   -3.1203   -2.1776    1.2165 H   0  0  0  0  0  0  0  0  0  0  0  0
   -5.5314   -1.9970   -0.7919 H   0  0  0  0  0  0  0  0  0  0  0  0
   -5.5403   -2.9098    0.7218 H   0  0  0  0  0  0  0  0  0  0  0  0
   -6.7930   -1.7050    0.4110 H   0  0  0  0  0  0  0  0  0  0  0  0
   -4.8850   -1.8012    2.9167 H   0  0  0  0  0  0  0  0  0  0  0  0
   -6.2422   -0.7104    2.6284 H   0  0  0  0  0  0  0  0  0  0  0  0
   -4.6421   -0.0589    2.9892 H   0  0  0  0  0  0  0  0  0  0  0  0
   -5.9486    0.8598    0.9242 H   0  0  0  0  0  0  0  0  0  0  0  0
   -5.5842    2.9697   -0.4344 H   0  0  0  0  0  0  0  0  0  0  0  0
   -5.0560    3.0107    1.2509 H   0  0  0  0  0  0  0  0  0  0  0  0
   -3.9805    3.5866   -0.0228 H   0  0  0  0  0  0  0  0  0  0  0  0
   -2.8835    1.9990   -1.6050 H   0  0  0  0  0  0  0  0  0  0  0  0
   -3.2206    0.2761   -1.5901 H   0  0  0  0  0  0  0  0  0  0  0  0
   -4.4783    1.4083   -2.0733 H   0  0  0  0  0  0  0  0  0  0  0  0
   -3.3158    1.5858    2.0673 H   0  0  0  0  0  0  0  0  0  0  0  0
   -2.1664    1.9811    0.8249 H   0  0  0  0  0  0  0  0  0  0  0  0
  1  2  1  0
  2  3  1  0
  3  4  1  0
  4  5  1  0
  4  6  1  0
  6  7  1  0
  7  8  1  0
  7  9  1  0
  7 10  1  0
 10 11  1  0
 11 12  1  0
 12 13  1  0
 13 14  1  0
 14 15  2  0
 14 16  1  0
 16 17  1  0
 17 18  1  0
 18 19  1  0
 19 20  1  0
 19 21  1  0
 19 22  1  0
 22 23  1  0
 23 24  1  0
 23 25  1  0
 23 26  1  0
 13  2  2  0
 11  3  2  0
 26 17  1  0
  1 27  1  0
  1 28  1  0
  1 29  1  0
  4 30  1  0
  5 31  1  0
  6 32  1  0
  6 33  1  0
  8 34  1  0
  8 35  1  0
  8 36  1  0
  9 37  1  0
  9 38  1  0
  9 39  1  0
 10 40  1  0
 10 41  1  0
 16 42  1  0
 17 43  1  0
 18 44  1  0
 18 45  1  0
 20 46  1  0
 20 47  1  0
 20 48  1  0
 21 49  1  0
 21 50  1  0
 21 51  1  0
 22 52  1  0
 24 53  1  0
 24 54  1  0
 24 55  1  0
 25 56  1  0
 25 57  1  0
 25 58  1  0
 26 59  1  0
 26 60  1  0
M  END
>  <Unnamed: 0>  (205) 
1295

>  <ID>  (205) 
TRAIN_1295

>  <Canonical_Smiles>  (205) 
Cc1c2C(O)CC(C)(C)Cc2oc1C(=O)NC3CC(C)(C)NC(C)(C)C3

>  <Inhibition>  (205) 
7.67

>  <TDC_conf_true_inhibitor>  (205) 
0

>  <TDC_conf_non_inhibitor>  (205) 
1

>  <split>  (205) 
1

$$$$
205
     RDKit          3D

 33 35  0  0  0  0  0  0  0  0999 V2000
    1.7163   -1.6607   -2.2185 N   0  0  0  0  0  0  0  0  0  0  0  0
    0.8146   -0.9261   -1.4960 C   0  0  0  0  0  0  0  0  0  0  0  0
   -0.2879   -0.6624   -1.9614 O   0  0  0  0  0  0  0  0  0  0  0  0
    1.2767   -0.5100   -0.1785 C   0  0  0  0  0  0  0  0  0  0  0  0
    2.5971   -0.0485    0.1426 C   0  0  0  0  0  0  0  0  0  0  0  0
    3.6720    0.1128   -0.7211 N   0  0  0  0  0  0  0  0  0  0  0  0
    4.8912    0.5749   -0.2873 C   0  0  0  0  0  0  0  0  0  0  0  0
    5.8424    0.7214   -1.0475 O   0  0  0  0  0  0  0  0  0  0  0  0
    5.0305    0.8954    1.1638 C   0  0  0  0  0  0  0  0  0  0  0  0
    3.9959    0.7494    2.0052 C   0  0  0  0  0  0  0  0  0  0  0  0
    4.0453    1.0273    3.3484 O   0  0  0  0  0  0  0  0  0  0  0  0
    2.7675    0.2754    1.4728 C   0  0  0  0  0  0  0  0  0  0  0  0
    1.3303    0.0431    2.3497 S   0  0  0  0  0  0  0  0  0  0  0  0
    0.4803   -0.4906    0.9594 C   0  0  0  0  0  0  0  0  0  0  0  0
   -1.2010   -1.0006    1.1121 S   0  0  0  0  0  0  0  0  0  0  0  0
   -2.0330    0.5393    0.6171 C   0  0  0  0  0  0  0  0  0  0  0  0
   -3.4815    0.3009    0.2991 C   0  0  0  0  0  0  0  0  0  0  0  0
   -3.8843   -0.1260   -0.9714 C   0  0  0  0  0  0  0  0  0  0  0  0
   -5.2340   -0.3484   -1.2278 C   0  0  0  0  0  0  0  0  0  0  0  0
   -6.1315   -0.1362   -0.1963 C   0  0  0  0  0  0  0  0  0  0  0  0
   -7.8128   -0.3836   -0.4295 Cl  0  0  0  0  0  0  0  0  0  0  0  0
   -5.7893    0.2690    1.0434 N   0  0  0  0  0  0  0  0  0  0  0  0
   -4.4712    0.4707    1.2637 C   0  0  0  0  0  0  0  0  0  0  0  0
    1.3367   -2.0961   -3.0505 H   0  0  0  0  0  0  0  0  0  0  0  0
    2.4443   -2.1697   -1.7334 H   0  0  0  0  0  0  0  0  0  0  0  0
    3.5669   -0.0754   -1.7111 H   0  0  0  0  0  0  0  0  0  0  0  0
    6.0040    1.2500    1.4737 H   0  0  0  0  0  0  0  0  0  0  0  0
    4.9365    1.3423    3.5739 H   0  0  0  0  0  0  0  0  0  0  0  0
   -1.9391    1.2704    1.4283 H   0  0  0  0  0  0  0  0  0  0  0  0
   -1.5407    0.9803   -0.2567 H   0  0  0  0  0  0  0  0  0  0  0  0
   -3.1484   -0.2917   -1.7568 H   0  0  0  0  0  0  0  0  0  0  0  0
   -5.5681   -0.6800   -2.2037 H   0  0  0  0  0  0  0  0  0  0  0  0
   -4.2256    0.7834    2.2759 H   0  0  0  0  0  0  0  0  0  0  0  0
  1  2  1  0
  2  3  2  0
  2  4  1  0
  4  5  1  0
  5  6  1  0
  6  7  1  0
  7  8  2  0
  7  9  1  0
  9 10  2  0
 10 11  1  0
 10 12  1  0
 12 13  1  0
 13 14  1  0
 14 15  1  0
 15 16  1  0
 16 17  1  0
 17 18  2  0
 18 19  1  0
 19 20  2  0
 20 21  1  0
 20 22  1  0
 22 23  2  0
 14  4  2  0
 12  5  2  0
 23 17  1  0
  1 24  1  0
  1 25  1  0
  6 26  1  0
  9 27  1  0
 11 28  1  0
 16 29  1  0
 16 30  1  0
 18 31  1  0
 19 32  1  0
 23 33  1  0
M  END
>  <Unnamed: 0>  (206) 
1299

>  <ID>  (206) 
TRAIN_1299

>  <Canonical_Smiles>  (206) 
NC(=O)c1c2NC(=O)C=C(O)c2sc1SCc3ccc(Cl)nc3

>  <Inhibition>  (206) 
45.2

>  <TDC_conf_true_inhibitor>  (206) 
1

>  <TDC_conf_non_inhibitor>  (206) 
0

>  <split>  (206) 
1

$$$$
206
     RDKit          3D

 33 34  0  0  0  0  0  0  0  0999 V2000
    0.6828    0.0000    0.0000 Cl  0  0  0  0  0  0  0  0  0  0  0  0
   -1.2877   -2.9876   -1.0236 C   0  0  0  0  0  0  0  0  0  0  0  0
   -0.3912   -1.8224   -0.8055 C   0  0  0  0  0  0  0  0  0  0  0  0
    0.9448   -1.9838   -0.5910 N   0  0  0  0  0  0  0  0  0  0  0  0
    1.4993   -0.7936   -0.4288 C   0  0  0  0  0  0  0  0  0  0  0  0
    2.8090   -0.3845   -0.1856 C   0  0  0  0  0  0  0  0  0  0  0  0
    3.0797    0.9596   -0.0620 C   0  0  0  0  0  0  0  0  0  0  0  0
    2.0522    1.8621   -0.1817 C   0  0  0  0  0  0  0  0  0  0  0  0
    0.7402    1.4547   -0.4252 C   0  0  0  0  0  0  0  0  0  0  0  0
    0.4602    0.1250   -0.5495 C   0  0  0  0  0  0  0  0  0  0  0  0
   -0.6908   -0.5097   -0.7793 N   0  0  0  0  0  0  0  0  0  0  0  0
   -1.9952    0.0538   -0.9649 C   0  0  0  0  0  0  0  0  0  0  0  0
   -2.6814    0.1660    0.3736 C   0  0  0  0  0  0  0  0  0  0  0  0
   -2.6158    1.2549    1.1424 C   0  0  0  0  0  0  0  0  0  0  0  0
   -3.2486    1.3017    2.3390 C   0  0  0  0  0  0  0  0  0  0  0  0
   -4.0409   -0.3407    2.4485 S   0  0  0  0  0  0  0  0  0  0  0  0
   -3.4301   -0.9133    0.8632 C   0  0  0  0  0  0  0  0  0  0  0  0
    4.4364    1.4300    0.1927 C   0  0  0  0  0  0  0  0  0  0  0  0
    4.6662    2.6616    0.3028 O   0  0  0  0  0  0  0  0  0  0  0  0
    5.5147    0.5740    0.3235 O   0  0  0  0  0  0  0  0  0  0  0  0
   -0.6828    0.0000    0.0000 H   0  0  0  0  0  0  0  0  0  0  0  0
   -2.2770   -2.6890   -1.4133 H   0  0  0  0  0  0  0  0  0  0  0  0
   -1.3845   -3.5335   -0.0619 H   0  0  0  0  0  0  0  0  0  0  0  0
   -0.8375   -3.6388   -1.8233 H   0  0  0  0  0  0  0  0  0  0  0  0
    3.6295   -1.0799   -0.0885 H   0  0  0  0  0  0  0  0  0  0  0  0
    2.2876    2.9135   -0.0811 H   0  0  0  0  0  0  0  0  0  0  0  0
   -0.0628    2.1823   -0.5176 H   0  0  0  0  0  0  0  0  0  0  0  0
   -2.6447   -0.5600   -1.6085 H   0  0  0  0  0  0  0  0  0  0  0  0
   -1.9746    1.0604   -1.4319 H   0  0  0  0  0  0  0  0  0  0  0  0
   -2.0350    2.1980    0.8487 H   0  0  0  0  0  0  0  0  0  0  0  0
   -3.3304    2.0455    3.0957 H   0  0  0  0  0  0  0  0  0  0  0  0
   -3.6145   -1.8829    0.4091 H   0  0  0  0  0  0  0  0  0  0  0  0
    6.4230    0.8765    0.6838 H   0  0  0  0  0  0  0  0  0  0  0  0
  2  3  1  0
  3  4  2  0
  4  5  1  0
  5  6  2  0
  6  7  1  0
  7  8  2  0
  8  9  1  0
  9 10  2  0
 10 11  1  0
 11 12  1  0
 12 13  1  0
 13 14  1  0
 14 15  2  0
 15 16  1  0
 16 17  1  0
  7 18  1  0
 18 19  2  0
 18 20  1  0
 11  3  1  0
 10  5  1  0
 17 13  2  0
  1 21  1  0
  2 22  1  0
  2 23  1  0
  2 24  1  0
  6 25  1  0
  8 26  1  0
  9 27  1  0
 12 28  1  0
 12 29  1  0
 14 30  1  0
 15 31  1  0
 17 32  1  0
 20 33  1  0
M  END
>  <Unnamed: 0>  (207) 
1304

>  <ID>  (207) 
TRAIN_1304

>  <Canonical_Smiles>  (207) 
Cl.Cc1nc2cc(ccc2n1Cc3ccsc3)C(=O)O

>  <Inhibition>  (207) 
5.24

>  <TDC_conf_true_inhibitor>  (207) 
0

>  <TDC_conf_non_inhibitor>  (207) 
1

>  <split>  (207) 
1

$$$$
207
     RDKit          3D

 54 58  0  0  0  0  0  0  0  0999 V2000
    5.6109   -1.2576   -0.2715 C   0  0  0  0  0  0  0  0  0  0  0  0
    4.5071   -0.2721   -0.0417 C   0  0  0  0  0  0  0  0  0  0  0  0
    4.5968    0.9805    0.4408 C   0  0  0  0  0  0  0  0  0  0  0  0
    5.8111    1.6521    0.7515 C   0  0  0  0  0  0  0  0  0  0  0  0
    5.8931    2.5436    1.8007 O   0  0  0  0  0  0  0  0  0  0  0  0
    7.1501    3.0439    1.8480 C   0  0  0  0  0  0  0  0  0  0  0  0
    7.9108    2.5200    0.8363 C   0  0  0  0  0  0  0  0  0  0  0  0
    7.0560    1.6414    0.1291 C   0  0  0  0  0  0  0  0  0  0  0  0
    3.1334   -0.7916   -0.3231 C   0  0  0  0  0  0  0  0  0  0  0  0
    2.0617   -0.0640   -0.3318 N   0  0  0  0  0  0  0  0  0  0  0  0
    0.8909   -0.7482   -0.5941 N   0  0  0  0  0  0  0  0  0  0  0  0
   -0.1643    0.1058   -1.1538 C   0  0  0  0  0  0  0  0  0  0  0  0
   -1.3594   -0.7283   -1.6436 C   0  0  0  0  0  0  0  0  0  0  0  0
   -1.8946   -1.6932   -0.6725 N   0  0  0  0  0  0  0  0  0  0  0  0
   -0.8496   -2.4336    0.0379 C   0  0  0  0  0  0  0  0  0  0  0  0
    0.4033   -1.6428    0.4648 C   0  0  0  0  0  0  0  0  0  0  0  0
   -3.0746   -1.3051    0.0989 C   0  0  0  0  0  0  0  0  0  0  0  0
   -3.0598    0.0437    0.8132 C   0  0  0  0  0  0  0  0  0  0  0  0
   -2.2561    0.4758    1.8571 C   0  0  0  0  0  0  0  0  0  0  0  0
   -2.4508    1.7634    2.3637 C   0  0  0  0  0  0  0  0  0  0  0  0
   -3.4576    2.5931    1.8486 C   0  0  0  0  0  0  0  0  0  0  0  0
   -4.3001    2.1423    0.8299 C   0  0  0  0  0  0  0  0  0  0  0  0
   -4.1047    0.8653    0.3261 C   0  0  0  0  0  0  0  0  0  0  0  0
   -4.8617    0.1330   -0.6665 C   0  0  0  0  0  0  0  0  0  0  0  0
   -5.9761    0.4983   -1.4045 C   0  0  0  0  0  0  0  0  0  0  0  0
   -6.5223   -0.4329   -2.2943 C   0  0  0  0  0  0  0  0  0  0  0  0
   -5.9569   -1.7108   -2.4374 C   0  0  0  0  0  0  0  0  0  0  0  0
   -4.8350   -2.0800   -1.6939 C   0  0  0  0  0  0  0  0  0  0  0  0
   -4.2963   -1.1503   -0.8150 C   0  0  0  0  0  0  0  0  0  0  0  0
    6.4997   -1.0420    0.3275 H   0  0  0  0  0  0  0  0  0  0  0  0
    5.8931   -1.2705   -1.3289 H   0  0  0  0  0  0  0  0  0  0  0  0
    5.2969   -2.2690    0.0096 H   0  0  0  0  0  0  0  0  0  0  0  0
    3.6925    1.5539    0.6374 H   0  0  0  0  0  0  0  0  0  0  0  0
    7.3405    3.7540    2.6404 H   0  0  0  0  0  0  0  0  0  0  0  0
    8.9452    2.7506    0.6257 H   0  0  0  0  0  0  0  0  0  0  0  0
    7.3122    1.0703   -0.7523 H   0  0  0  0  0  0  0  0  0  0  0  0
    3.0846   -1.8710   -0.5562 H   0  0  0  0  0  0  0  0  0  0  0  0
    0.2624    0.6602   -1.9976 H   0  0  0  0  0  0  0  0  0  0  0  0
   -0.4670    0.8284   -0.3893 H   0  0  0  0  0  0  0  0  0  0  0  0
   -1.0200   -1.3140   -2.5088 H   0  0  0  0  0  0  0  0  0  0  0  0
   -2.1320   -0.0601   -2.0391 H   0  0  0  0  0  0  0  0  0  0  0  0
   -0.5112   -3.2185   -0.6521 H   0  0  0  0  0  0  0  0  0  0  0  0
   -1.2542   -2.9715    0.9036 H   0  0  0  0  0  0  0  0  0  0  0  0
    0.2006   -1.0320    1.3472 H   0  0  0  0  0  0  0  0  0  0  0  0
    1.1973   -2.3501    0.7273 H   0  0  0  0  0  0  0  0  0  0  0  0
   -3.3402   -2.0791    0.8315 H   0  0  0  0  0  0  0  0  0  0  0  0
   -1.4972   -0.1633    2.2888 H   0  0  0  0  0  0  0  0  0  0  0  0
   -1.8182    2.1253    3.1712 H   0  0  0  0  0  0  0  0  0  0  0  0
   -3.5932    3.5910    2.2587 H   0  0  0  0  0  0  0  0  0  0  0  0
   -5.0942    2.7799    0.4568 H   0  0  0  0  0  0  0  0  0  0  0  0
   -6.4239    1.4806   -1.3003 H   0  0  0  0  0  0  0  0  0  0  0  0
   -7.3962   -0.1650   -2.8836 H   0  0  0  0  0  0  0  0  0  0  0  0
   -6.3960   -2.4177   -3.1374 H   0  0  0  0  0  0  0  0  0  0  0  0
   -4.3866   -3.0616   -1.8074 H   0  0  0  0  0  0  0  0  0  0  0  0
  1  2  1  0
  2  3  2  0
  3  4  1  0
  4  5  1  0
  5  6  1  0
  6  7  2  0
  7  8  1  0
  2  9  1  0
  9 10  2  0
 10 11  1  0
 11 12  1  0
 12 13  1  0
 13 14  1  0
 14 15  1  0
 15 16  1  0
 14 17  1  0
 17 18  1  0
 18 19  2  0
 19 20  1  0
 20 21  2  0
 21 22  1  0
 22 23  2  0
 23 24  1  0
 24 25  2  0
 25 26  1  0
 26 27  2  0
 27 28  1  0
 28 29  2  0
  8  4  2  0
 16 11  1  0
 29 17  1  0
 23 18  1  0
 29 24  1  0
  1 30  1  0
  1 31  1  0
  1 32  1  0
  3 33  1  0
  6 34  1  0
  7 35  1  0
  8 36  1  0
  9 37  1  0
 12 38  1  0
 12 39  1  0
 13 40  1  0
 13 41  1  0
 15 42  1  0
 15 43  1  0
 16 44  1  0
 16 45  1  0
 17 46  1  0
 19 47  1  0
 20 48  1  0
 21 49  1  0
 22 50  1  0
 25 51  1  0
 26 52  1  0
 27 53  1  0
 28 54  1  0
M  END
>  <Unnamed: 0>  (208) 
1334

>  <ID>  (208) 
TRAIN_1334

>  <Canonical_Smiles>  (208) 
C\C(=C/c1occc1)\C=N\N2CCN(CC2)C3c4ccccc4c5ccccc35

>  <Inhibition>  (208) 
31.8

>  <TDC_conf_true_inhibitor>  (208) 
0

>  <TDC_conf_non_inhibitor>  (208) 
1

>  <split>  (208) 
1

$$$$
208
     RDKit          3D

 34 35  0  0  0  0  0  0  0  0999 V2000
    5.4455    0.7430    0.4764 C   0  0  0  0  0  0  0  0  0  0  0  0
    4.0121    1.1122    0.4290 C   0  0  0  0  0  0  0  0  0  0  0  0
    3.5096    2.2980    0.6943 N   0  0  0  0  0  0  0  0  0  0  0  0
    2.1522    2.2230    0.5409 N   0  0  0  0  0  0  0  0  0  0  0  0
    1.8299    0.9838    0.2326 C   0  0  0  0  0  0  0  0  0  0  0  0
    0.5150    0.6116    0.0871 N   0  0  0  0  0  0  0  0  0  0  0  0
    0.0182   -0.6658    0.1680 C   0  0  0  0  0  0  0  0  0  0  0  0
    0.6741   -1.6827    0.3721 O   0  0  0  0  0  0  0  0  0  0  0  0
   -1.5030   -0.7558    0.0183 C   0  0  0  0  0  0  0  0  0  0  0  0
   -2.2311   -0.1545    1.2336 C   0  0  0  0  0  0  0  0  0  0  0  0
   -3.6459    0.3405    0.9171 C   0  0  0  0  0  0  0  0  0  0  0  0
   -4.2776   -0.4476   -0.2153 C   0  0  0  0  0  0  0  0  0  0  0  0
   -5.5499   -0.0306   -0.4190 F   0  0  0  0  0  0  0  0  0  0  0  0
   -4.3549   -1.7533    0.1533 F   0  0  0  0  0  0  0  0  0  0  0  0
   -3.4922   -0.3417   -1.5162 C   0  0  0  0  0  0  0  0  0  0  0  0
   -1.9885   -0.1410   -1.2989 C   0  0  0  0  0  0  0  0  0  0  0  0
    2.9878    0.2618    0.0703 N   0  0  0  0  0  0  0  0  0  0  0  0
    3.1739   -1.0433   -0.5089 C   0  0  0  0  0  0  0  0  0  0  0  0
    5.5911   -0.2004    1.0115 H   0  0  0  0  0  0  0  0  0  0  0  0
    5.8509    0.6421   -0.5348 H   0  0  0  0  0  0  0  0  0  0  0  0
    6.0217    1.5152    0.9958 H   0  0  0  0  0  0  0  0  0  0  0  0
   -0.1168    1.3953    0.1905 H   0  0  0  0  0  0  0  0  0  0  0  0
   -1.7389   -1.8293   -0.0204 H   0  0  0  0  0  0  0  0  0  0  0  0
   -2.2890   -0.9291    2.0098 H   0  0  0  0  0  0  0  0  0  0  0  0
   -1.6652    0.6666    1.6889 H   0  0  0  0  0  0  0  0  0  0  0  0
   -4.2665    0.2701    1.8177 H   0  0  0  0  0  0  0  0  0  0  0  0
   -3.6179    1.4035    0.6473 H   0  0  0  0  0  0  0  0  0  0  0  0
   -3.8773    0.4838   -2.1261 H   0  0  0  0  0  0  0  0  0  0  0  0
   -3.6518   -1.2579   -2.0973 H   0  0  0  0  0  0  0  0  0  0  0  0
   -1.4340   -0.5572   -2.1488 H   0  0  0  0  0  0  0  0  0  0  0  0
   -1.7811    0.9369   -1.3050 H   0  0  0  0  0  0  0  0  0  0  0  0
    3.1352   -1.7886    0.2881 H   0  0  0  0  0  0  0  0  0  0  0  0
    2.4148   -1.2172   -1.2746 H   0  0  0  0  0  0  0  0  0  0  0  0
    4.1497   -1.0913   -0.9997 H   0  0  0  0  0  0  0  0  0  0  0  0
  1  2  1  0
  2  3  2  0
  3  4  1  0
  4  5  2  0
  5  6  1  0
  6  7  1  0
  7  8  2  0
  7  9  1  0
  9 10  1  0
 10 11  1  0
 11 12  1  0
 12 13  1  0
 12 14  1  0
 12 15  1  0
 15 16  1  0
  5 17  1  0
 17 18  1  0
 17  2  1  0
 16  9  1  0
  1 19  1  0
  1 20  1  0
  1 21  1  0
  6 22  1  0
  9 23  1  0
 10 24  1  0
 10 25  1  0
 11 26  1  0
 11 27  1  0
 15 28  1  0
 15 29  1  0
 16 30  1  0
 16 31  1  0
 18 32  1  0
 18 33  1  0
 18 34  1  0
M  END
>  <Unnamed: 0>  (209) 
1339

>  <ID>  (209) 
TRAIN_1339

>  <Canonical_Smiles>  (209) 
Cc1nnc(NC(=O)C2CCC(F)(F)CC2)n1C

>  <Inhibition>  (209) 
11.2

>  <TDC_conf_true_inhibitor>  (209) 
0

>  <TDC_conf_non_inhibitor>  (209) 
1

>  <split>  (209) 
1

$$$$
209
     RDKit          3D

 49 52  0  0  0  0  0  0  0  0999 V2000
   -4.9288   -0.8685    2.3257 C   0  0  0  0  0  0  0  0  0  0  0  0
   -4.1298   -1.9694    1.6571 C   0  0  0  0  0  0  0  0  0  0  0  0
   -3.7650   -1.5638    0.3406 O   0  0  0  0  0  0  0  0  0  0  0  0
   -2.4607   -0.9608    0.1934 C   0  0  0  0  0  0  0  0  0  0  0  0
   -1.2529   -1.9208    0.1336 C   0  0  0  0  0  0  0  0  0  0  0  0
   -0.6224   -0.9982   -0.9367 C   0  0  0  0  0  0  0  0  0  0  0  0
    0.2284    0.0100   -0.3575 N   0  0  0  0  0  0  0  0  0  0  0  0
    1.5607   -0.1887    0.0688 C   0  0  0  0  0  0  0  0  0  0  0  0
    2.1535   -1.4414    0.2205 C   0  0  0  0  0  0  0  0  0  0  0  0
    3.4055   -1.6525    0.6969 N   0  0  0  0  0  0  0  0  0  0  0  0
    4.0994   -0.5535    1.0708 C   0  0  0  0  0  0  0  0  0  0  0  0
    3.6229    0.7476    0.9670 C   0  0  0  0  0  0  0  0  0  0  0  0
    2.3189    0.9115    0.4827 C   0  0  0  0  0  0  0  0  0  0  0  0
    4.4026    1.9110    1.3734 C   0  0  0  0  0  0  0  0  0  0  0  0
    3.9287    2.9502    2.0397 N   0  0  0  0  0  0  0  0  0  0  0  0
    4.9457    3.8524    2.2356 N   0  0  0  0  0  0  0  0  0  0  0  0
    6.0183    3.3662    1.6618 C   0  0  0  0  0  0  0  0  0  0  0  0
    5.7266    2.1624    1.0950 N   0  0  0  0  0  0  0  0  0  0  0  0
    6.6349    1.3872    0.2919 C   0  0  0  0  0  0  0  0  0  0  0  0
   -2.0694   -0.4861   -1.2544 C   0  0  0  0  0  0  0  0  0  0  0  0
   -2.3431    0.9976   -1.5075 C   0  0  0  0  0  0  0  0  0  0  0  0
   -3.7284    0.9788   -2.1363 C   0  0  0  0  0  0  0  0  0  0  0  0
   -3.6463   -0.1893   -3.1050 C   0  0  0  0  0  0  0  0  0  0  0  0
   -2.7671   -1.2352   -2.4131 C   0  0  0  0  0  0  0  0  0  0  0  0
   -4.3334    0.0458    2.4162 H   0  0  0  0  0  0  0  0  0  0  0  0
   -5.8109   -0.6158    1.7281 H   0  0  0  0  0  0  0  0  0  0  0  0
   -5.2542   -1.1752    3.3238 H   0  0  0  0  0  0  0  0  0  0  0  0
   -3.2417   -2.2242    2.2457 H   0  0  0  0  0  0  0  0  0  0  0  0
   -4.7427   -2.8717    1.5673 H   0  0  0  0  0  0  0  0  0  0  0  0
   -2.3185   -0.1695    0.9432 H   0  0  0  0  0  0  0  0  0  0  0  0
   -1.4978   -2.9226   -0.2394 H   0  0  0  0  0  0  0  0  0  0  0  0
   -0.7090   -2.0337    1.0761 H   0  0  0  0  0  0  0  0  0  0  0  0
   -0.1218   -1.5101   -1.7653 H   0  0  0  0  0  0  0  0  0  0  0  0
    0.1267    0.9271   -0.7892 H   0  0  0  0  0  0  0  0  0  0  0  0
    1.6239   -2.3513   -0.0442 H   0  0  0  0  0  0  0  0  0  0  0  0
    5.0771   -0.7719    1.4895 H   0  0  0  0  0  0  0  0  0  0  0  0
    1.8935    1.9125    0.4363 H   0  0  0  0  0  0  0  0  0  0  0  0
    6.9895    3.8393    1.6229 H   0  0  0  0  0  0  0  0  0  0  0  0
    6.1041    0.9927   -0.5777 H   0  0  0  0  0  0  0  0  0  0  0  0
    7.0343    0.5768    0.9059 H   0  0  0  0  0  0  0  0  0  0  0  0
    7.4527    2.0274   -0.0502 H   0  0  0  0  0  0  0  0  0  0  0  0
   -1.6190    1.4054   -2.2234 H   0  0  0  0  0  0  0  0  0  0  0  0
   -2.3124    1.6098   -0.6013 H   0  0  0  0  0  0  0  0  0  0  0  0
   -4.4927    0.7845   -1.3747 H   0  0  0  0  0  0  0  0  0  0  0  0
   -3.9721    1.9201   -2.6368 H   0  0  0  0  0  0  0  0  0  0  0  0
   -4.6328   -0.5863   -3.3627 H   0  0  0  0  0  0  0  0  0  0  0  0
   -3.1668    0.1336   -4.0371 H   0  0  0  0  0  0  0  0  0  0  0  0
   -2.0407   -1.6288   -3.1333 H   0  0  0  0  0  0  0  0  0  0  0  0
   -3.3674   -2.0809   -2.0632 H   0  0  0  0  0  0  0  0  0  0  0  0
  1  2  1  0
  2  3  1  0
  3  4  1  0
  4  5  1  0
  5  6  1  0
  6  7  1  0
  7  8  1  0
  8  9  2  0
  9 10  1  0
 10 11  2  0
 11 12  1  0
 12 13  2  0
 12 14  1  0
 14 15  2  0
 15 16  1  0
 16 17  2  0
 17 18  1  0
 18 19  1  0
  6 20  1  0
 20 21  1  0
 21 22  1  0
 22 23  1  0
 23 24  1  0
 20  4  1  0
 13  8  1  0
 18 14  1  0
 24 20  1  0
  1 25  1  0
  1 26  1  0
  1 27  1  0
  2 28  1  0
  2 29  1  0
  4 30  1  0
  5 31  1  0
  5 32  1  0
  6 33  1  0
  7 34  1  0
  9 35  1  0
 11 36  1  0
 13 37  1  0
 17 38  1  0
 19 39  1  0
 19 40  1  0
 19 41  1  0
 21 42  1  0
 21 43  1  0
 22 44  1  0
 22 45  1  0
 23 46  1  0
 23 47  1  0
 24 48  1  0
 24 49  1  0
M  END
>  <Unnamed: 0>  (210) 
1341

>  <ID>  (210) 
TRAIN_1341

>  <Canonical_Smiles>  (210) 
CCOC1CC(Nc2cncc(c2)c3nncn3C)C14CCCC4

>  <Inhibition>  (210) 
16.9

>  <TDC_conf_true_inhibitor>  (210) 
0

>  <TDC_conf_non_inhibitor>  (210) 
1

>  <split>  (210) 
1

$$$$
210
     RDKit          3D

 36 39  0  0  0  0  0  0  0  0999 V2000
   -1.1214    2.6351    0.2469 C   0  0  0  0  0  0  0  0  0  0  0  0
   -2.2356    1.7238   -0.1119 C   0  0  0  0  0  0  0  0  0  0  0  0
   -3.5143    2.2240   -0.1717 N   0  0  0  0  0  0  0  0  0  0  0  0
   -4.2728    1.2070   -0.5060 C   0  0  0  0  0  0  0  0  0  0  0  0
   -5.6804    1.1452   -0.7122 C   0  0  0  0  0  0  0  0  0  0  0  0
   -6.2564   -0.0160   -1.0719 C   0  0  0  0  0  0  0  0  0  0  0  0
   -5.4671   -1.2186   -1.2584 C   0  0  0  0  0  0  0  0  0  0  0  0
   -4.1386   -1.1683   -1.0598 C   0  0  0  0  0  0  0  0  0  0  0  0
   -3.5316    0.0336   -0.6786 N   0  0  0  0  0  0  0  0  0  0  0  0
   -2.2142    0.3663   -0.4086 C   0  0  0  0  0  0  0  0  0  0  0  0
   -0.9145   -0.5159   -0.4074 C   0  0  0  0  0  0  0  0  0  0  0  0
   -0.8327   -1.8657   -0.6584 C   0  0  0  0  0  0  0  0  0  0  0  0
    0.7955   -2.3940   -0.5449 S   0  0  0  0  0  0  0  0  0  0  0  0
    1.2867   -0.7910   -0.1552 C   0  0  0  0  0  0  0  0  0  0  0  0
    2.5644   -0.4098    0.0774 N   0  0  0  0  0  0  0  0  0  0  0  0
    3.4996   -1.3092    0.7345 C   0  0  0  0  0  0  0  0  0  0  0  0
    4.8297   -0.6845    0.9890 C   0  0  0  0  0  0  0  0  0  0  0  0
    5.1492   -0.4220    2.2895 O   0  0  0  0  0  0  0  0  0  0  0  0
    6.3828    0.1455    2.2875 C   0  0  0  0  0  0  0  0  0  0  0  0
    6.8617    0.2538    1.0030 C   0  0  0  0  0  0  0  0  0  0  0  0
    5.8574   -0.2806    0.1609 C   0  0  0  0  0  0  0  0  0  0  0  0
    0.3053    0.0776   -0.1217 N   0  0  0  0  0  0  0  0  0  0  0  0
   -1.4909    3.6520    0.4154 H   0  0  0  0  0  0  0  0  0  0  0  0
   -0.6298    2.3037    1.1666 H   0  0  0  0  0  0  0  0  0  0  0  0
   -0.3821    2.6801   -0.5585 H   0  0  0  0  0  0  0  0  0  0  0  0
   -6.2608    2.0502   -0.5730 H   0  0  0  0  0  0  0  0  0  0  0  0
   -7.3284   -0.0764   -1.2331 H   0  0  0  0  0  0  0  0  0  0  0  0
   -5.9687   -2.1330   -1.5574 H   0  0  0  0  0  0  0  0  0  0  0  0
   -3.5266   -2.0419   -1.1963 H   0  0  0  0  0  0  0  0  0  0  0  0
   -1.5925   -2.5875   -0.8957 H   0  0  0  0  0  0  0  0  0  0  0  0
    2.6234    0.5382    0.4397 H   0  0  0  0  0  0  0  0  0  0  0  0
    3.0767   -1.6486    1.6890 H   0  0  0  0  0  0  0  0  0  0  0  0
    3.6662   -2.1999    0.1163 H   0  0  0  0  0  0  0  0  0  0  0  0
    6.7753    0.4135    3.2587 H   0  0  0  0  0  0  0  0  0  0  0  0
    7.8150    0.6715    0.7110 H   0  0  0  0  0  0  0  0  0  0  0  0
    5.8704   -0.3584   -0.9177 H   0  0  0  0  0  0  0  0  0  0  0  0
  1  2  1  0
  2  3  1  0
  3  4  2  0
  4  5  1  0
  5  6  2  0
  6  7  1  0
  7  8  2  0
  8  9  1  0
  9 10  1  0
 10 11  1  0
 11 12  2  0
 12 13  1  0
 13 14  1  0
 14 15  1  0
 15 16  1  0
 16 17  1  0
 17 18  1  0
 18 19  1  0
 19 20  2  0
 20 21  1  0
 14 22  2  0
 10  2  2  0
  9  4  1  0
 22 11  1  0
 21 17  2  0
  1 23  1  0
  1 24  1  0
  1 25  1  0
  5 26  1  0
  6 27  1  0
  7 28  1  0
  8 29  1  0
 12 30  1  0
 15 31  1  0
 16 32  1  0
 16 33  1  0
 19 34  1  0
 20 35  1  0
 21 36  1  0
M  END
>  <Unnamed: 0>  (211) 
1352

>  <ID>  (211) 
TRAIN_1352

>  <Canonical_Smiles>  (211) 
Cc1nc2ccccn2c1c3csc(NCc4occc4)n3

>  <Inhibition>  (211) 
83.4

>  <TDC_conf_true_inhibitor>  (211) 
1

>  <TDC_conf_non_inhibitor>  (211) 
0

>  <split>  (211) 
1

$$$$
211
     RDKit          3D

 29 31  0  0  0  0  0  0  0  0999 V2000
   -1.7552   -0.1910    0.9249 O   0  0  0  0  0  0  0  0  0  0  0  0
   -2.2110   -1.2471    0.2624 C   0  0  0  0  0  0  0  0  0  0  0  0
   -2.5991   -2.2826    0.9262 N   0  0  0  0  0  0  0  0  0  0  0  0
   -3.1042   -3.2137    0.0452 C   0  0  0  0  0  0  0  0  0  0  0  0
   -3.5336   -4.3124    0.3589 O   0  0  0  0  0  0  0  0  0  0  0  0
   -3.1077   -2.6722   -1.6501 S   0  0  0  0  0  0  0  0  0  0  0  0
   -2.3215   -1.1870   -1.2024 C   0  0  0  0  0  0  0  0  0  0  0  0
   -1.9514   -0.2737   -2.1085 C   0  0  0  0  0  0  0  0  0  0  0  0
   -1.2188    0.9003   -1.8014 C   0  0  0  0  0  0  0  0  0  0  0  0
   -0.1043    0.9145   -0.9997 O   0  0  0  0  0  0  0  0  0  0  0  0
    0.3880    2.1810   -0.9308 C   0  0  0  0  0  0  0  0  0  0  0  0
    1.7935    2.6310    0.0057 S   0  0  0  0  0  0  0  0  0  0  0  0
    2.1631    1.0610    0.7648 C   0  0  0  0  0  0  0  0  0  0  0  0
    3.1555    0.2382    0.2215 C   0  0  0  0  0  0  0  0  0  0  0  0
    3.4704   -0.9794    0.8289 C   0  0  0  0  0  0  0  0  0  0  0  0
    2.7960   -1.3791    1.9825 C   0  0  0  0  0  0  0  0  0  0  0  0
    1.8119   -0.5594    2.5350 C   0  0  0  0  0  0  0  0  0  0  0  0
    1.5015    0.6617    1.9318 C   0  0  0  0  0  0  0  0  0  0  0  0
   -0.3968    3.0059   -1.7116 C   0  0  0  0  0  0  0  0  0  0  0  0
   -1.4106    2.1947   -2.2750 C   0  0  0  0  0  0  0  0  0  0  0  0
   -1.7299   -0.4102    1.8688 H   0  0  0  0  0  0  0  0  0  0  0  0
   -2.1947   -0.4264   -3.1589 H   0  0  0  0  0  0  0  0  0  0  0  0
    3.6883    0.5376   -0.6767 H   0  0  0  0  0  0  0  0  0  0  0  0
    4.2446   -1.6119    0.4019 H   0  0  0  0  0  0  0  0  0  0  0  0
    3.0408   -2.3286    2.4544 H   0  0  0  0  0  0  0  0  0  0  0  0
    1.2930   -0.8688    3.4382 H   0  0  0  0  0  0  0  0  0  0  0  0
    0.7406    1.2986    2.3732 H   0  0  0  0  0  0  0  0  0  0  0  0
   -0.2490    4.0646   -1.8629 H   0  0  0  0  0  0  0  0  0  0  0  0
   -2.1993    2.5127   -2.9463 H   0  0  0  0  0  0  0  0  0  0  0  0
  1  2  1  0
  2  3  2  0
  3  4  1  0
  4  5  2  0
  4  6  1  0
  6  7  1  0
  7  8  2  0
  8  9  1  0
  9 10  1  0
 10 11  1  0
 11 12  1  0
 12 13  1  0
 13 14  2  0
 14 15  1  0
 15 16  2  0
 16 17  1  0
 17 18  2  0
 11 19  2  0
 19 20  1  0
  7  2  1  0
 20  9  2  0
 18 13  1  0
  1 21  1  0
  8 22  1  0
 14 23  1  0
 15 24  1  0
 16 25  1  0
 17 26  1  0
 18 27  1  0
 19 28  1  0
 20 29  1  0
M  END
>  <Unnamed: 0>  (212) 
1384

>  <ID>  (212) 
TRAIN_1384

>  <Canonical_Smiles>  (212) 
OC1=NC(=O)S/C/1=C/c2oc(Sc3ccccc3)cc2

>  <Inhibition>  (212) 
11.5

>  <TDC_conf_true_inhibitor>  (212) 
0

>  <TDC_conf_non_inhibitor>  (212) 
1

>  <split>  (212) 
1

$$$$
212
     RDKit          3D

 23 23  0  0  0  0  0  0  0  0999 V2000
   -3.8357    1.3576   -1.5045 N   0  0  0  0  0  0  0  0  0  0  0  0
   -2.6860    0.9122   -0.9002 C   0  0  0  0  0  0  0  0  0  0  0  0
   -1.7681    1.8151   -0.7160 N   0  0  0  0  0  0  0  0  0  0  0  0
   -0.5747    1.4741   -0.1284 C   0  0  0  0  0  0  0  0  0  0  0  0
    0.3279    2.2991   -0.0022 O   0  0  0  0  0  0  0  0  0  0  0  0
   -0.4095    0.1625    0.3244 N   0  0  0  0  0  0  0  0  0  0  0  0
    0.8728   -0.2080    0.9381 C   0  0  0  0  0  0  0  0  0  0  0  0
    1.9600   -0.4897   -0.1049 C   0  0  0  0  0  0  0  0  0  0  0  0
    1.6180   -1.6876   -0.8228 O   0  0  0  0  0  0  0  0  0  0  0  0
    3.3217   -0.6675    0.5569 C   0  0  0  0  0  0  0  0  0  0  0  0
    4.1097   -1.5689    0.3057 O   0  0  0  0  0  0  0  0  0  0  0  0
    3.6548    0.3027    1.4251 O   0  0  0  0  0  0  0  0  0  0  0  0
   -1.3711   -0.8017    0.1158 C   0  0  0  0  0  0  0  0  0  0  0  0
   -2.5281   -0.5145   -0.4826 C   0  0  0  0  0  0  0  0  0  0  0  0
   -3.8761   -1.7494   -0.7899 Br  0  0  0  0  0  0  0  0  0  0  0  0
   -4.6924    0.8653   -1.2801 H   0  0  0  0  0  0  0  0  0  0  0  0
   -3.9203    2.3690   -1.4928 H   0  0  0  0  0  0  0  0  0  0  0  0
    0.7168   -1.0875    1.5761 H   0  0  0  0  0  0  0  0  0  0  0  0
    1.1723    0.6124    1.6010 H   0  0  0  0  0  0  0  0  0  0  0  0
    2.0447    0.3192   -0.8377 H   0  0  0  0  0  0  0  0  0  0  0  0
    2.4374   -1.9875   -1.2628 H   0  0  0  0  0  0  0  0  0  0  0  0
    4.5660    0.0813    1.7136 H   0  0  0  0  0  0  0  0  0  0  0  0
   -1.1399   -1.8083    0.4513 H   0  0  0  0  0  0  0  0  0  0  0  0
  1  2  1  0
  2  3  2  0
  3  4  1  0
  4  5  2  0
  4  6  1  0
  6  7  1  0
  7  8  1  0
  8  9  1  0
  8 10  1  0
 10 11  2  0
 10 12  1  0
  6 13  1  0
 13 14  2  0
 14 15  1  0
 14  2  1  0
  1 16  1  0
  1 17  1  0
  7 18  1  0
  7 19  1  0
  8 20  1  0
  9 21  1  0
 12 22  1  0
 13 23  1  0
M  END
>  <Unnamed: 0>  (213) 
1387

>  <ID>  (213) 
TRAIN_1387

>  <Canonical_Smiles>  (213) 
NC1=NC(=O)N(CC(O)C(=O)O)C=C1Br

>  <Inhibition>  (213) 
3.88

>  <TDC_conf_true_inhibitor>  (213) 
0

>  <TDC_conf_non_inhibitor>  (213) 
1

>  <split>  (213) 
1

$$$$
213
     RDKit          3D

 44 48  0  0  0  0  0  0  0  0999 V2000
   -5.8795    0.4327    2.0189 N   0  0  0  0  0  0  0  0  0  0  0  0
   -6.2518    0.0065    0.7730 C   0  0  0  0  0  0  0  0  0  0  0  0
   -6.9661   -0.9793    0.6224 O   0  0  0  0  0  0  0  0  0  0  0  0
   -5.6857    0.8198   -0.3835 C   0  0  0  0  0  0  0  0  0  0  0  0
   -4.3104    0.4385   -0.6143 N   0  0  0  0  0  0  0  0  0  0  0  0
   -3.2529    0.9732    0.1011 C   0  0  0  0  0  0  0  0  0  0  0  0
   -3.3592    1.7812    1.0067 O   0  0  0  0  0  0  0  0  0  0  0  0
   -2.0006    0.2883   -0.4267 C   0  0  0  0  0  0  0  0  0  0  0  0
   -0.7786    0.5541    0.0809 C   0  0  0  0  0  0  0  0  0  0  0  0
   -0.4294    1.8221    1.2384 S   0  0  0  0  0  0  0  0  0  0  0  0
    1.2787    1.5569    1.2003 C   0  0  0  0  0  0  0  0  0  0  0  0
    2.1117    2.2630    1.8772 N   0  0  0  0  0  0  0  0  0  0  0  0
    3.4244    1.8652    1.7564 C   0  0  0  0  0  0  0  0  0  0  0  0
    4.3029    2.3514    2.4545 O   0  0  0  0  0  0  0  0  0  0  0  0
    3.8099    0.7526    0.7648 C   0  0  0  0  0  0  0  0  0  0  0  0
    2.8665    0.1028    0.1376 N   0  0  0  0  0  0  0  0  0  0  0  0
    1.5768    0.5157    0.3714 N   0  0  0  0  0  0  0  0  0  0  0  0
    0.5159   -0.1461   -0.2329 C   0  0  0  0  0  0  0  0  0  0  0  0
    0.6124   -1.1813   -0.8748 O   0  0  0  0  0  0  0  0  0  0  0  0
    5.2322    0.3886    0.5164 C   0  0  0  0  0  0  0  0  0  0  0  0
    6.2735    1.3178    0.6191 C   0  0  0  0  0  0  0  0  0  0  0  0
    7.5902    0.9304    0.3536 C   0  0  0  0  0  0  0  0  0  0  0  0
    7.8735   -0.3804   -0.0260 C   0  0  0  0  0  0  0  0  0  0  0  0
    6.8413   -1.3078   -0.1472 C   0  0  0  0  0  0  0  0  0  0  0  0
    5.5248   -0.9251    0.1180 C   0  0  0  0  0  0  0  0  0  0  0  0
   -2.4763   -0.6514   -1.4746 C   0  0  0  0  0  0  0  0  0  0  0  0
   -1.8581   -1.5015   -2.3791 C   0  0  0  0  0  0  0  0  0  0  0  0
   -2.6404   -2.2723   -3.2508 C   0  0  0  0  0  0  0  0  0  0  0  0
   -4.0358   -2.1832   -3.2339 C   0  0  0  0  0  0  0  0  0  0  0  0
   -4.6689   -1.3027   -2.3612 C   0  0  0  0  0  0  0  0  0  0  0  0
   -3.8774   -0.5407   -1.5129 C   0  0  0  0  0  0  0  0  0  0  0  0
   -6.1296   -0.1567    2.8017 H   0  0  0  0  0  0  0  0  0  0  0  0
   -5.0715    1.0430    2.1265 H   0  0  0  0  0  0  0  0  0  0  0  0
   -5.7270    1.8829   -0.1187 H   0  0  0  0  0  0  0  0  0  0  0  0
   -6.2989    0.6805   -1.2781 H   0  0  0  0  0  0  0  0  0  0  0  0
    6.0911    2.3536    0.8942 H   0  0  0  0  0  0  0  0  0  0  0  0
    8.3961    1.6557    0.4415 H   0  0  0  0  0  0  0  0  0  0  0  0
    8.8991   -0.6775   -0.2319 H   0  0  0  0  0  0  0  0  0  0  0  0
    7.0596   -2.3289   -0.4503 H   0  0  0  0  0  0  0  0  0  0  0  0
    4.7319   -1.6637    0.0124 H   0  0  0  0  0  0  0  0  0  0  0  0
   -0.7842   -1.5983   -2.4610 H   0  0  0  0  0  0  0  0  0  0  0  0
   -2.1529   -2.9497   -3.9497 H   0  0  0  0  0  0  0  0  0  0  0  0
   -4.6261   -2.7962   -3.9111 H   0  0  0  0  0  0  0  0  0  0  0  0
   -5.7512   -1.2336   -2.3596 H   0  0  0  0  0  0  0  0  0  0  0  0
  1  2  1  0
  2  3  2  0
  2  4  1  0
  4  5  1  0
  5  6  1  0
  6  7  2  0
  6  8  1  0
  8  9  2  0
  9 10  1  0
 10 11  1  0
 11 12  2  0
 12 13  1  0
 13 14  2  0
 13 15  1  0
 15 16  2  0
 16 17  1  0
 17 18  1  0
 18 19  2  0
 15 20  1  0
 20 21  2  0
 21 22  1  0
 22 23  2  0
 23 24  1  0
 24 25  2  0
  8 26  1  0
 26 27  2  0
 27 28  1  0
 28 29  2  0
 29 30  1  0
 30 31  2  0
 31  5  1  0
 18  9  1  0
 17 11  1  0
 25 20  1  0
 31 26  1  0
  1 32  1  0
  1 33  1  0
  4 34  1  0
  4 35  1  0
 21 36  1  0
 22 37  1  0
 23 38  1  0
 24 39  1  0
 25 40  1  0
 27 41  1  0
 28 42  1  0
 29 43  1  0
 30 44  1  0
M  END
>  <Unnamed: 0>  (214) 
1389

>  <ID>  (214) 
TRAIN_1389

>  <Canonical_Smiles>  (214) 
NC(=O)CN1C(=O)\C(=C\2/SC3=NC(=O)C(=NN3C2=O)c4ccccc4)\c5ccccc15

>  <Inhibition>  (214) 
13.2

>  <TDC_conf_true_inhibitor>  (214) 
0

>  <TDC_conf_non_inhibitor>  (214) 
1

>  <split>  (214) 
1

$$$$
214
     RDKit          3D

 33 36  0  0  0  0  0  0  0  0999 V2000
    0.0609    2.3519   -0.1516 S   0  0  0  0  0  0  0  0  0  0  0  0
   -1.0647    1.1414   -0.8362 C   0  0  0  0  0  0  0  0  0  0  0  0
   -0.7759    0.7989   -2.1201 N   0  0  0  0  0  0  0  0  0  0  0  0
   -1.5766   -0.1017   -2.7168 C   0  0  0  0  0  0  0  0  0  0  0  0
   -2.6685   -0.6841   -2.1031 C   0  0  0  0  0  0  0  0  0  0  0  0
   -2.9752   -0.3258   -0.7878 C   0  0  0  0  0  0  0  0  0  0  0  0
   -4.0841   -0.8950   -0.1380 C   0  0  0  0  0  0  0  0  0  0  0  0
   -4.4055   -0.5442    1.1725 C   0  0  0  0  0  0  0  0  0  0  0  0
   -3.6231    0.3805    1.8513 C   0  0  0  0  0  0  0  0  0  0  0  0
   -2.5183    0.9542    1.2187 C   0  0  0  0  0  0  0  0  0  0  0  0
   -2.1648    0.6156   -0.1131 C   0  0  0  0  0  0  0  0  0  0  0  0
    1.1267    1.2523    0.7737 C   0  0  0  0  0  0  0  0  0  0  0  0
    0.8276    1.1968    2.0990 N   0  0  0  0  0  0  0  0  0  0  0  0
    1.5843    0.3986    2.8726 C   0  0  0  0  0  0  0  0  0  0  0  0
    2.6416   -0.3529    2.3979 C   0  0  0  0  0  0  0  0  0  0  0  0
    2.9593   -0.2893    1.0387 C   0  0  0  0  0  0  0  0  0  0  0  0
    4.0341   -1.0361    0.5259 C   0  0  0  0  0  0  0  0  0  0  0  0
    4.3661   -0.9796   -0.8271 C   0  0  0  0  0  0  0  0  0  0  0  0
    3.6284   -0.1757   -1.6858 C   0  0  0  0  0  0  0  0  0  0  0  0
    2.5578    0.5718   -1.1909 C   0  0  0  0  0  0  0  0  0  0  0  0
    2.1945    0.5332    0.1802 C   0  0  0  0  0  0  0  0  0  0  0  0
   -1.3104   -0.3528   -3.7396 H   0  0  0  0  0  0  0  0  0  0  0  0
   -3.2695   -1.4035   -2.6499 H   0  0  0  0  0  0  0  0  0  0  0  0
   -4.7118   -1.6207   -0.6515 H   0  0  0  0  0  0  0  0  0  0  0  0
   -5.2662   -0.9930    1.6615 H   0  0  0  0  0  0  0  0  0  0  0  0
   -3.8658    0.6586    2.8737 H   0  0  0  0  0  0  0  0  0  0  0  0
   -1.9252    1.6719    1.7832 H   0  0  0  0  0  0  0  0  0  0  0  0
    1.3110    0.3774    3.9238 H   0  0  0  0  0  0  0  0  0  0  0  0
    3.2079   -0.9741    3.0843 H   0  0  0  0  0  0  0  0  0  0  0  0
    4.6265   -1.6717    1.1812 H   0  0  0  0  0  0  0  0  0  0  0  0
    5.2000   -1.5630   -1.2085 H   0  0  0  0  0  0  0  0  0  0  0  0
    3.8796   -0.1269   -2.7423 H   0  0  0  0  0  0  0  0  0  0  0  0
    1.9992    1.1873   -1.8942 H   0  0  0  0  0  0  0  0  0  0  0  0
  1  2  1  0
  2  3  2  0
  3  4  1  0
  4  5  2  0
  5  6  1  0
  6  7  2  0
  7  8  1  0
  8  9  2  0
  9 10  1  0
 10 11  2  0
  1 12  1  0
 12 13  2  0
 13 14  1  0
 14 15  2  0
 15 16  1  0
 16 17  2  0
 17 18  1  0
 18 19  2  0
 19 20  1  0
 20 21  2  0
 11  2  1  0
 11  6  1  0
 21 12  1  0
 21 16  1  0
  4 22  1  0
  5 23  1  0
  7 24  1  0
  8 25  1  0
  9 26  1  0
 10 27  1  0
 14 28  1  0
 15 29  1  0
 17 30  1  0
 18 31  1  0
 19 32  1  0
 20 33  1  0
M  END
>  <Unnamed: 0>  (215) 
1390

>  <ID>  (215) 
TRAIN_1390

>  <Canonical_Smiles>  (215) 
S(c1nccc2ccccc12)c3nccc4ccccc34

>  <Inhibition>  (215) 
26.9

>  <TDC_conf_true_inhibitor>  (215) 
0

>  <TDC_conf_non_inhibitor>  (215) 
1

>  <split>  (215) 
1

$$$$
215
     RDKit          3D

 42 43  0  0  0  0  0  0  0  0999 V2000
    6.2994    0.1624   -0.1391 C   0  0  0  0  0  0  0  0  0  0  0  0
    4.7892    0.2791   -0.0943 C   0  0  0  0  0  0  0  0  0  0  0  0
    4.0112   -1.3226   -0.0994 S   0  0  0  0  0  6  0  0  0  0  0  0
    4.2330   -1.9590   -1.3853 O   0  0  0  0  0  0  0  0  0  0  0  0
    4.3050   -2.0020    1.1494 O   0  0  0  0  0  0  0  0  0  0  0  0
    2.3096   -1.0584   -0.0467 N   0  0  0  0  0  0  0  0  0  0  0  0
    1.4197   -2.0996   -0.0391 C   0  0  0  0  0  0  0  0  0  0  0  0
    0.1797   -1.5081    0.0061 C   0  0  0  0  0  0  0  0  0  0  0  0
   -1.1308   -2.0750    0.0337 C   0  0  0  0  0  0  0  0  0  0  0  0
   -1.2978   -3.2896    0.0178 O   0  0  0  0  0  0  0  0  0  0  0  0
   -2.1522   -1.1161    0.0789 N   0  0  0  0  0  0  0  0  0  0  0  0
   -3.5335   -1.6419    0.1092 C   0  0  0  0  0  0  0  0  0  0  0  0
   -4.3419   -1.2482   -1.1308 C   0  0  0  0  0  0  0  0  0  0  0  0
   -4.2699   -1.2914    1.4057 C   0  0  0  0  0  0  0  0  0  0  0  0
   -1.9586    0.2826    0.0972 C   0  0  0  0  0  0  0  0  0  0  0  0
   -2.9172    1.0576    0.1376 O   0  0  0  0  0  0  0  0  0  0  0  0
   -0.6432    0.7685    0.0682 N   0  0  0  0  0  0  0  0  0  0  0  0
   -0.3786    2.2245    0.0854 C   0  0  0  0  0  0  0  0  0  0  0  0
   -0.9305    2.9328   -1.1545 C   0  0  0  0  0  0  0  0  0  0  0  0
   -0.8587    2.8898    1.3780 C   0  0  0  0  0  0  0  0  0  0  0  0
    0.4055   -0.1343    0.0231 C   0  0  0  0  0  0  0  0  0  0  0  0
    1.7081    0.1621   -0.0089 N   0  0  0  0  0  0  0  0  0  0  0  0
    6.6776   -0.3926    0.7254 H   0  0  0  0  0  0  0  0  0  0  0  0
    6.7584    1.1557   -0.1353 H   0  0  0  0  0  0  0  0  0  0  0  0
    6.6274   -0.3625   -1.0420 H   0  0  0  0  0  0  0  0  0  0  0  0
    4.4244    0.8273   -0.9678 H   0  0  0  0  0  0  0  0  0  0  0  0
    4.4750    0.7969    0.8166 H   0  0  0  0  0  0  0  0  0  0  0  0
    1.7410   -3.1328   -0.0658 H   0  0  0  0  0  0  0  0  0  0  0  0
   -3.4879   -2.7372    0.0893 H   0  0  0  0  0  0  0  0  0  0  0  0
   -4.5660   -0.1786   -1.1657 H   0  0  0  0  0  0  0  0  0  0  0  0
   -5.2983   -1.7821   -1.1479 H   0  0  0  0  0  0  0  0  0  0  0  0
   -3.7959   -1.5057   -2.0448 H   0  0  0  0  0  0  0  0  0  0  0  0
   -5.2244   -1.8264    1.4588 H   0  0  0  0  0  0  0  0  0  0  0  0
   -3.6732   -1.5792    2.2780 H   0  0  0  0  0  0  0  0  0  0  0  0
   -4.4907   -0.2237    1.4896 H   0  0  0  0  0  0  0  0  0  0  0  0
    0.7075    2.3745    0.0572 H   0  0  0  0  0  0  0  0  0  0  0  0
   -0.5785    2.4420   -2.0683 H   0  0  0  0  0  0  0  0  0  0  0  0
   -0.5946    3.9751   -1.1807 H   0  0  0  0  0  0  0  0  0  0  0  0
   -2.0238    2.9409   -1.1802 H   0  0  0  0  0  0  0  0  0  0  0  0
   -0.5208    3.9309    1.4205 H   0  0  0  0  0  0  0  0  0  0  0  0
   -0.4559    2.3685    2.2531 H   0  0  0  0  0  0  0  0  0  0  0  0
   -1.9488    2.8959    1.4659 H   0  0  0  0  0  0  0  0  0  0  0  0
  1  2  1  0
  2  3  1  0
  3  4  2  0
  3  5  2  0
  3  6  1  0
  6  7  1  0
  7  8  2  0
  8  9  1  0
  9 10  2  0
  9 11  1  0
 11 12  1  0
 12 13  1  0
 12 14  1  0
 11 15  1  0
 15 16  2  0
 15 17  1  0
 17 18  1  0
 18 19  1  0
 18 20  1  0
 17 21  1  0
 21 22  2  0
 22  6  1  0
 21  8  1  0
  1 23  1  0
  1 24  1  0
  1 25  1  0
  2 26  1  0
  2 27  1  0
  7 28  1  0
 12 29  1  0
 13 30  1  0
 13 31  1  0
 13 32  1  0
 14 33  1  0
 14 34  1  0
 14 35  1  0
 18 36  1  0
 19 37  1  0
 19 38  1  0
 19 39  1  0
 20 40  1  0
 20 41  1  0
 20 42  1  0
M  END
>  <Unnamed: 0>  (216) 
1394

>  <ID>  (216) 
TRAIN_1394

>  <Canonical_Smiles>  (216) 
CCS(=O)(=O)n1cc2C(=O)N(C(C)C)C(=O)N(C(C)C)c2n1

>  <Inhibition>  (216) 
48.8

>  <TDC_conf_true_inhibitor>  (216) 
0

>  <TDC_conf_non_inhibitor>  (216) 
1

>  <split>  (216) 
1

$$$$
216
     RDKit          3D

 56 60  0  0  0  0  0  0  0  0999 V2000
    9.0374   -2.0401    1.4975 O   0  0  0  0  0  0  0  0  0  0  0  0
    7.9549   -1.7365    0.7480 C   0  0  0  0  0  0  0  0  0  0  0  0
    7.6433   -2.4544   -0.1866 O   0  0  0  0  0  0  0  0  0  0  0  0
    7.2757   -0.4793    1.2333 C   0  0  0  0  0  0  0  0  0  0  0  0
    6.0653   -0.0859    0.4208 C   0  0  0  0  0  0  0  0  0  0  0  0
    4.7978   -0.5833    0.7439 C   0  0  0  0  0  0  0  0  0  0  0  0
    3.6777   -0.2311   -0.0180 C   0  0  0  0  0  0  0  0  0  0  0  0
    3.7987    0.6170   -1.1239 C   0  0  0  0  0  0  0  0  0  0  0  0
    2.7087    1.0284   -1.9252 N   0  0  0  0  0  0  0  0  0  0  0  0
    1.3593    0.8444   -1.6583 C   0  0  0  0  0  0  0  0  0  0  0  0
    0.4119    0.4528   -2.5198 C   0  0  0  0  0  0  0  0  0  0  0  0
    0.8279    0.0567   -4.1579 Cl  0  0  0  0  0  0  0  0  0  0  0  0
   -1.0182    0.2937   -2.1274 C   0  0  0  0  0  0  0  0  0  0  0  0
   -1.8423   -0.1053   -2.9492 O   0  0  0  0  0  0  0  0  0  0  0  0
   -1.3309    0.6128   -0.7996 N   0  0  0  0  0  0  0  0  0  0  0  0
   -0.3919    1.1026    0.0811 N   0  0  0  0  0  0  0  0  0  0  0  0
    0.8269    1.2172   -0.3288 C   0  0  0  0  0  0  0  0  0  0  0  0
   -2.7158    0.4342   -0.2550 C   0  0  0  0  0  0  0  0  0  0  0  0
   -2.8193    0.8921    1.2397 C   0  0  0  0  0  0  0  0  0  0  0  0
   -4.2537    0.7703    1.7796 C   0  0  0  0  0  0  0  0  0  0  0  0
   -5.1946    1.6403    0.9365 C   0  0  0  0  0  0  0  0  0  0  0  0
   -5.1530    1.1761   -0.5245 C   0  0  0  0  0  0  0  0  0  0  0  0
   -5.5802   -0.3009   -0.6116 C   0  0  0  0  0  0  0  0  0  0  0  0
   -4.6324   -1.1787    0.2321 C   0  0  0  0  0  0  0  0  0  0  0  0
   -4.7109   -0.6890    1.6905 C   0  0  0  0  0  0  0  0  0  0  0  0
   -3.2004   -1.0435   -0.3510 C   0  0  0  0  0  0  0  0  0  0  0  0
   -2.2282   -2.0256    0.2769 C   0  0  0  0  0  0  0  0  0  0  0  0
   -2.2875   -2.5305    1.3850 O   0  0  0  0  0  0  0  0  0  0  0  0
   -1.2166   -2.3676   -0.5477 O   0  0  0  0  0  0  0  0  0  0  0  0
   -3.7175    1.3268   -1.0546 C   0  0  0  0  0  0  0  0  0  0  0  0
    5.0722    1.1070   -1.4446 C   0  0  0  0  0  0  0  0  0  0  0  0
    6.1941    0.7590   -0.6863 C   0  0  0  0  0  0  0  0  0  0  0  0
    9.3816   -2.8622    1.0879 H   0  0  0  0  0  0  0  0  0  0  0  0
    6.9771   -0.6286    2.2778 H   0  0  0  0  0  0  0  0  0  0  0  0
    8.0063    0.3382    1.2133 H   0  0  0  0  0  0  0  0  0  0  0  0
    4.6699   -1.2586    1.5877 H   0  0  0  0  0  0  0  0  0  0  0  0
    2.7206   -0.6632    0.2590 H   0  0  0  0  0  0  0  0  0  0  0  0
    2.9316    0.8994   -2.9138 H   0  0  0  0  0  0  0  0  0  0  0  0
    1.5581    1.6487    0.3749 H   0  0  0  0  0  0  0  0  0  0  0  0
   -2.1436    0.3011    1.8714 H   0  0  0  0  0  0  0  0  0  0  0  0
   -2.4963    1.9377    1.3356 H   0  0  0  0  0  0  0  0  0  0  0  0
   -4.2846    1.1034    2.8232 H   0  0  0  0  0  0  0  0  0  0  0  0
   -4.8980    2.6940    1.0068 H   0  0  0  0  0  0  0  0  0  0  0  0
   -6.2189    1.5722    1.3234 H   0  0  0  0  0  0  0  0  0  0  0  0
   -5.8329    1.7916   -1.1243 H   0  0  0  0  0  0  0  0  0  0  0  0
   -6.6112   -0.4123   -0.2535 H   0  0  0  0  0  0  0  0  0  0  0  0
   -5.5712   -0.6332   -1.6570 H   0  0  0  0  0  0  0  0  0  0  0  0
   -4.9601   -2.2240    0.1844 H   0  0  0  0  0  0  0  0  0  0  0  0
   -4.1039   -1.3108    2.3547 H   0  0  0  0  0  0  0  0  0  0  0  0
   -5.7422   -0.7790    2.0553 H   0  0  0  0  0  0  0  0  0  0  0  0
   -3.2742   -1.3502   -1.4033 H   0  0  0  0  0  0  0  0  0  0  0  0
   -0.7078   -3.0237   -0.0272 H   0  0  0  0  0  0  0  0  0  0  0  0
   -3.7212    1.0712   -2.1192 H   0  0  0  0  0  0  0  0  0  0  0  0
   -3.4057    2.3783   -0.9977 H   0  0  0  0  0  0  0  0  0  0  0  0
    5.2010    1.7768   -2.2920 H   0  0  0  0  0  0  0  0  0  0  0  0
    7.1671    1.1539   -0.9705 H   0  0  0  0  0  0  0  0  0  0  0  0
  1  2  1  0
  2  3  2  0
  2  4  1  0
  4  5  1  0
  5  6  2  0
  6  7  1  0
  7  8  2  0
  8  9  1  0
  9 10  1  0
 10 11  2  0
 11 12  1  0
 11 13  1  0
 13 14  2  0
 13 15  1  0
 15 16  1  0
 16 17  2  0
 15 18  1  0
 18 19  1  0
 19 20  1  0
 20 21  1  0
 21 22  1  0
 22 23  1  0
 23 24  1  0
 24 25  1  0
 24 26  1  0
 26 27  1  0
 27 28  2  0
 27 29  1  0
 22 30  1  0
  8 31  1  0
 31 32  2  0
 32  5  1  0
 17 10  1  0
 26 18  1  0
 30 18  1  0
 25 20  1  0
  1 33  1  0
  4 34  1  0
  4 35  1  0
  6 36  1  0
  7 37  1  0
  9 38  1  0
 17 39  1  0
 19 40  1  0
 19 41  1  0
 20 42  1  0
 21 43  1  0
 21 44  1  0
 22 45  1  0
 23 46  1  0
 23 47  1  0
 24 48  1  0
 25 49  1  0
 25 50  1  0
 26 51  1  0
 29 52  1  0
 30 53  1  0
 30 54  1  0
 31 55  1  0
 32 56  1  0
M  END
>  <Unnamed: 0>  (217) 
1397

>  <ID>  (217) 
TRAIN_1397

>  <Canonical_Smiles>  (217) 
OC(=O)Cc1ccc(NC2=C(Cl)C(=O)N(N=C2)C34CC5CC(CC(C5)C3C(=O)O)C4)cc1

>  <Inhibition>  (217) 
0.5

>  <TDC_conf_true_inhibitor>  (217) 
0

>  <TDC_conf_non_inhibitor>  (217) 
1

>  <split>  (217) 
1

$$$$
217
     RDKit          3D

 57 60  0  0  0  0  0  0  0  0999 V2000
    8.8867    1.4910    1.0347 C   0  0  0  0  0  0  0  0  0  0  0  0
    8.2441    0.1196    1.1197 C   0  0  0  0  0  0  0  0  0  0  0  0
    6.8986    0.2253    0.6375 O   0  0  0  0  0  0  0  0  0  0  0  0
    6.1799   -0.9217    0.7390 C   0  0  0  0  0  0  0  0  0  0  0  0
    6.5867   -1.9821    1.1873 O   0  0  0  0  0  0  0  0  0  0  0  0
    4.7945   -0.7177    0.2346 C   0  0  0  0  0  0  0  0  0  0  0  0
    3.8800   -1.7688    0.3627 C   0  0  0  0  0  0  0  0  0  0  0  0
    2.5630   -1.6271   -0.0931 C   0  0  0  0  0  0  0  0  0  0  0  0
    2.1428   -0.4345   -0.6824 C   0  0  0  0  0  0  0  0  0  0  0  0
    0.8410   -0.2124   -1.1643 N   0  0  0  0  0  0  0  0  0  0  0  0
   -0.2624   -1.0483   -1.0708 C   0  0  0  0  0  0  0  0  0  0  0  0
   -0.2948   -2.1438   -0.5236 O   0  0  0  0  0  0  0  0  0  0  0  0
   -1.4880   -0.4334   -1.7754 C   0  0  0  0  0  0  0  0  0  0  0  0
   -1.4380    1.0163   -1.5678 O   0  0  0  0  0  0  0  0  0  0  0  0
   -2.5446    1.5065   -0.8060 C   0  0  0  0  0  0  0  0  0  0  0  0
   -2.3887    2.8214   -0.2805 O   0  0  0  0  0  0  0  0  0  0  0  0
   -3.3422    2.8493    0.8152 C   0  0  0  0  0  0  0  0  0  0  0  0
   -4.5827    3.6267    0.3885 C   0  0  0  0  0  0  0  0  0  0  0  0
   -2.6732    3.4959    2.0233 C   0  0  0  0  0  0  0  0  0  0  0  0
   -3.7407    1.4960    1.1513 O   0  0  0  0  0  0  0  0  0  0  0  0
   -2.7765    0.7135    0.4654 C   0  0  0  0  0  0  0  0  0  0  0  0
   -3.0533   -0.7463    0.1571 C   0  0  0  0  0  0  0  0  0  0  0  0
   -4.3546   -1.3060    0.3120 O   0  0  0  0  0  0  0  0  0  0  0  0
   -4.2715   -2.5136   -0.5008 C   0  0  0  0  0  0  0  0  0  0  0  0
   -4.0271   -3.7237    0.3922 C   0  0  0  0  0  0  0  0  0  0  0  0
   -5.5713   -2.6583   -1.2830 C   0  0  0  0  0  0  0  0  0  0  0  0
   -3.1574   -2.3860   -1.4329 O   0  0  0  0  0  0  0  0  0  0  0  0
   -2.8250   -1.0121   -1.3141 C   0  0  0  0  0  0  0  0  0  0  0  0
    3.0610    0.6141   -0.8175 C   0  0  0  0  0  0  0  0  0  0  0  0
    4.3776    0.4773   -0.3616 C   0  0  0  0  0  0  0  0  0  0  0  0
    8.3280    2.2153    1.6387 H   0  0  0  0  0  0  0  0  0  0  0  0
    8.8760    1.8600    0.0032 H   0  0  0  0  0  0  0  0  0  0  0  0
    9.9212    1.4596    1.3892 H   0  0  0  0  0  0  0  0  0  0  0  0
    8.2424   -0.2218    2.1615 H   0  0  0  0  0  0  0  0  0  0  0  0
    8.8008   -0.5910    0.4981 H   0  0  0  0  0  0  0  0  0  0  0  0
    4.1843   -2.7091    0.8199 H   0  0  0  0  0  0  0  0  0  0  0  0
    1.8938   -2.4736    0.0275 H   0  0  0  0  0  0  0  0  0  0  0  0
    0.6447    0.7036   -1.5625 H   0  0  0  0  0  0  0  0  0  0  0  0
   -1.3513   -0.6193   -2.8470 H   0  0  0  0  0  0  0  0  0  0  0  0
   -3.4290    1.5450   -1.4556 H   0  0  0  0  0  0  0  0  0  0  0  0
   -5.0653    3.1437   -0.4694 H   0  0  0  0  0  0  0  0  0  0  0  0
   -4.3268    4.6472    0.0842 H   0  0  0  0  0  0  0  0  0  0  0  0
   -5.3236    3.6649    1.1944 H   0  0  0  0  0  0  0  0  0  0  0  0
   -2.3462    4.5161    1.7974 H   0  0  0  0  0  0  0  0  0  0  0  0
   -3.3457    3.5144    2.8874 H   0  0  0  0  0  0  0  0  0  0  0  0
   -1.7816    2.9304    2.3189 H   0  0  0  0  0  0  0  0  0  0  0  0
   -1.8511    0.7418    1.0611 H   0  0  0  0  0  0  0  0  0  0  0  0
   -2.3872   -1.3511    0.7868 H   0  0  0  0  0  0  0  0  0  0  0  0
   -3.9553   -4.6436   -0.1976 H   0  0  0  0  0  0  0  0  0  0  0  0
   -3.0835   -3.6227    0.9393 H   0  0  0  0  0  0  0  0  0  0  0  0
   -4.8217   -3.8328    1.1360 H   0  0  0  0  0  0  0  0  0  0  0  0
   -5.5451   -3.5357   -1.9376 H   0  0  0  0  0  0  0  0  0  0  0  0
   -5.7385   -1.7829   -1.9213 H   0  0  0  0  0  0  0  0  0  0  0  0
   -6.4326   -2.7351   -0.6104 H   0  0  0  0  0  0  0  0  0  0  0  0
   -3.5998   -0.5073   -1.9106 H   0  0  0  0  0  0  0  0  0  0  0  0
    2.7658    1.5548   -1.2770 H   0  0  0  0  0  0  0  0  0  0  0  0
    5.0633    1.3118   -0.4806 H   0  0  0  0  0  0  0  0  0  0  0  0
  1  2  1  0
  2  3  1  0
  3  4  1  0
  4  5  2  0
  4  6  1  0
  6  7  2  0
  7  8  1  0
  8  9  2  0
  9 10  1  0
 10 11  1  0
 11 12  2  0
 11 13  1  0
 13 14  1  0
 14 15  1  0
 15 16  1  0
 16 17  1  0
 17 18  1  0
 17 19  1  0
 17 20  1  0
 20 21  1  0
 21 22  1  0
 22 23  1  0
 23 24  1  0
 24 25  1  0
 24 26  1  0
 24 27  1  0
 27 28  1  0
  9 29  1  0
 29 30  2  0
 30  6  1  0
 28 13  1  0
 21 15  1  0
 28 22  1  0
  1 31  1  0
  1 32  1  0
  1 33  1  0
  2 34  1  0
  2 35  1  0
  7 36  1  0
  8 37  1  0
 10 38  1  0
 13 39  1  0
 15 40  1  0
 18 41  1  0
 18 42  1  0
 18 43  1  0
 19 44  1  0
 19 45  1  0
 19 46  1  0
 21 47  1  0
 22 48  1  0
 25 49  1  0
 25 50  1  0
 25 51  1  0
 26 52  1  0
 26 53  1  0
 26 54  1  0
 28 55  1  0
 29 56  1  0
 30 57  1  0
M  END
>  <Unnamed: 0>  (218) 
1398

>  <ID>  (218) 
TRAIN_1398

>  <Canonical_Smiles>  (218) 
CCOC(=O)c1ccc(NC(=O)C2OC3OC(C)(C)OC3C4OC(C)(C)OC24)cc1

>  <Inhibition>  (218) 
0.5

>  <TDC_conf_true_inhibitor>  (218) 
0

>  <TDC_conf_non_inhibitor>  (218) 
1

>  <split>  (218) 
1

$$$$
218
     RDKit          3D

 46 50  0  0  0  0  0  0  0  0999 V2000
    2.7858   -2.9579   -0.6204 O   0  0  0  0  0  0  0  0  0  0  0  0
    1.8824   -2.2260   -0.2382 C   0  0  0  0  0  0  0  0  0  0  0  0
    0.4478   -2.6458   -0.3294 C   0  0  0  0  0  0  0  0  0  0  0  0
   -0.2299   -1.7405    0.6781 C   0  0  0  0  0  0  0  0  0  0  0  0
   -1.6289   -1.4271    0.3323 N   0  0  0  0  0  0  0  0  0  0  0  0
   -2.4137   -0.9781    1.4890 C   0  0  0  0  0  0  0  0  0  0  0  0
   -3.8523   -0.6814    1.0758 C   0  0  0  0  0  0  0  0  0  0  0  0
   -3.9047    0.4602    0.0573 C   0  0  0  0  0  0  0  0  0  0  0  0
   -2.5631    0.6998   -0.6340 C   0  0  0  0  0  0  0  0  0  0  0  0
   -1.8276   -0.6150   -0.8780 C   0  0  0  0  0  0  0  0  0  0  0  0
   -4.2944    1.6720    0.7361 O   0  0  0  0  0  0  0  0  0  0  0  0
   -5.3507    2.2147   -0.0538 C   0  0  0  0  0  0  0  0  0  0  0  0
   -6.0037    0.9943   -0.6379 C   0  0  0  0  0  0  0  0  0  0  0  0
   -4.8961    0.1491   -0.9438 O   0  0  0  0  0  0  0  0  0  0  0  0
    0.7144   -0.5509    0.7699 C   0  0  0  0  0  0  0  0  0  0  0  0
    0.3840    0.5465    1.2009 O   0  0  0  0  0  0  0  0  0  0  0  0
    1.9540   -0.9581    0.3046 N   0  0  0  0  0  0  0  0  0  0  0  0
    3.1519   -0.1730    0.3778 C   0  0  0  0  0  0  0  0  0  0  0  0
    3.2278    0.9834    1.1958 C   0  0  0  0  0  0  0  0  0  0  0  0
    4.3896    1.7666    1.2791 C   0  0  0  0  0  0  0  0  0  0  0  0
    5.4764    1.3817    0.5349 C   0  0  0  0  0  0  0  0  0  0  0  0
    6.6782    2.0122    0.4866 O   0  0  0  0  0  0  0  0  0  0  0  0
    7.3907    1.1650   -0.4387 C   0  0  0  0  0  0  0  0  0  0  0  0
    6.6021    0.0586   -0.9239 O   0  0  0  0  0  0  0  0  0  0  0  0
    5.4310    0.2690   -0.2634 C   0  0  0  0  0  0  0  0  0  0  0  0
    4.2988   -0.5197   -0.3615 C   0  0  0  0  0  0  0  0  0  0  0  0
    0.3303   -3.6998   -0.0607 H   0  0  0  0  0  0  0  0  0  0  0  0
    0.1140   -2.4984   -1.3613 H   0  0  0  0  0  0  0  0  0  0  0  0
   -0.1976   -2.2415    1.6560 H   0  0  0  0  0  0  0  0  0  0  0  0
   -2.4310   -1.7732    2.2442 H   0  0  0  0  0  0  0  0  0  0  0  0
   -1.9749   -0.0932    1.9647 H   0  0  0  0  0  0  0  0  0  0  0  0
   -4.3003   -1.5920    0.6563 H   0  0  0  0  0  0  0  0  0  0  0  0
   -4.4386   -0.4300    1.9680 H   0  0  0  0  0  0  0  0  0  0  0  0
   -1.9366    1.3681   -0.0298 H   0  0  0  0  0  0  0  0  0  0  0  0
   -2.7169    1.2107   -1.5927 H   0  0  0  0  0  0  0  0  0  0  0  0
   -0.8829   -0.3913   -1.3872 H   0  0  0  0  0  0  0  0  0  0  0  0
   -2.4085   -1.2194   -1.5859 H   0  0  0  0  0  0  0  0  0  0  0  0
   -6.0245    2.8163    0.5609 H   0  0  0  0  0  0  0  0  0  0  0  0
   -4.9057    2.8462   -0.8304 H   0  0  0  0  0  0  0  0  0  0  0  0
   -6.6322    0.4805    0.0975 H   0  0  0  0  0  0  0  0  0  0  0  0
   -6.5913    1.2029   -1.5351 H   0  0  0  0  0  0  0  0  0  0  0  0
    2.3912    1.3018    1.8122 H   0  0  0  0  0  0  0  0  0  0  0  0
    4.4273    2.6457    1.9130 H   0  0  0  0  0  0  0  0  0  0  0  0
    7.7094    1.7707   -1.2948 H   0  0  0  0  0  0  0  0  0  0  0  0
    8.2810    0.7682    0.0627 H   0  0  0  0  0  0  0  0  0  0  0  0
    4.3377   -1.3721   -1.0297 H   0  0  0  0  0  0  0  0  0  0  0  0
  1  2  2  0
  2  3  1  0
  3  4  1  0
  4  5  1  0
  5  6  1  0
  6  7  1  0
  7  8  1  0
  8  9  1  0
  9 10  1  0
  8 11  1  0
 11 12  1  0
 12 13  1  0
 13 14  1  0
  4 15  1  0
 15 16  2  0
 15 17  1  0
 17 18  1  0
 18 19  2  0
 19 20  1  0
 20 21  2  0
 21 22  1  0
 22 23  1  0
 23 24  1  0
 24 25  1  0
 25 26  2  0
 17  2  1  0
 10  5  1  0
 14  8  1  0
 26 18  1  0
 25 21  1  0
  3 27  1  0
  3 28  1  0
  4 29  1  0
  6 30  1  0
  6 31  1  0
  7 32  1  0
  7 33  1  0
  9 34  1  0
  9 35  1  0
 10 36  1  0
 10 37  1  0
 12 38  1  0
 12 39  1  0
 13 40  1  0
 13 41  1  0
 19 42  1  0
 20 43  1  0
 23 44  1  0
 23 45  1  0
 26 46  1  0
M  END
>  <Unnamed: 0>  (219) 
1401

>  <ID>  (219) 
TRAIN_1401

>  <Canonical_Smiles>  (219) 
O=C1CC(N2CCC3(CC2)OCCO3)C(=O)N1c4ccc5OCOc5c4

>  <Inhibition>  (219) 
9.62

>  <TDC_conf_true_inhibitor>  (219) 
0

>  <TDC_conf_non_inhibitor>  (219) 
1

>  <split>  (219) 
1

$$$$
219
     RDKit          3D

 59 61  0  0  0  0  0  0  0  0999 V2000
    6.4495   -1.4871   -2.2731 C   0  0  0  0  0  0  0  0  0  0  0  0
    5.7632   -0.8275   -1.1135 C   0  0  0  0  0  0  0  0  0  0  0  0
    4.9346   -1.5659   -0.2695 C   0  0  0  0  0  0  0  0  0  0  0  0
    4.3096   -0.9789    0.8467 C   0  0  0  0  0  0  0  0  0  0  0  0
    3.4433   -1.8783    1.6918 C   0  0  0  0  0  0  0  0  0  0  0  0
    4.5128    0.4018    1.1012 C   0  0  0  0  0  0  0  0  0  0  0  0
    5.3926    1.1482    0.2822 C   0  0  0  0  0  0  0  0  0  0  0  0
    5.7354    2.5960    0.5081 C   0  0  0  0  0  0  0  0  0  0  0  0
    5.9991    0.5149   -0.8197 C   0  0  0  0  0  0  0  0  0  0  0  0
    3.6360    1.1911    2.4617 S   0  0  0  0  0  6  0  0  0  0  0  0
    3.6571    2.6296    2.3221 O   0  0  0  0  0  0  0  0  0  0  0  0
    4.0644    0.5528    3.6845 O   0  0  0  0  0  0  0  0  0  0  0  0
    2.0519    0.7443    2.2046 N   0  0  0  0  0  0  0  0  0  0  0  0
    1.2901    1.4673    1.1862 C   0  0  0  0  0  0  0  0  0  0  0  0
    0.1585    0.5971    0.7312 C   0  0  0  0  0  0  0  0  0  0  0  0
    0.0821    0.1013   -0.5468 N   0  0  0  0  0  0  0  0  0  0  0  0
   -0.9939   -0.6483   -0.5359 C   0  0  0  0  0  0  0  0  0  0  0  0
   -1.4400   -1.3800   -1.5814 N   0  0  0  0  0  0  0  0  0  0  0  0
   -1.5832   -0.5649    0.7141 N   0  0  0  0  0  0  0  0  0  0  0  0
   -0.8338    0.2153    1.5492 N   0  0  0  0  0  0  0  0  0  0  0  0
   -3.0650   -1.3362    1.0770 S   0  0  0  0  0  6  0  0  0  0  0  0
   -3.3518   -1.0781    2.4760 O   0  0  0  0  0  0  0  0  0  0  0  0
   -2.8654   -2.6929    0.5894 O   0  0  0  0  0  0  0  0  0  0  0  0
   -4.3040   -0.4850    0.0890 C   0  0  0  0  0  0  0  0  0  0  0  0
   -5.1848   -1.2241   -0.7397 C   0  0  0  0  0  0  0  0  0  0  0  0
   -5.2396   -2.7282   -0.7994 C   0  0  0  0  0  0  0  0  0  0  0  0
   -6.0798   -0.5291   -1.5751 C   0  0  0  0  0  0  0  0  0  0  0  0
   -6.1544    0.8633   -1.5699 C   0  0  0  0  0  0  0  0  0  0  0  0
   -7.0917    1.5750   -2.4990 C   0  0  0  0  0  0  0  0  0  0  0  0
   -5.3186    1.5778   -0.7132 C   0  0  0  0  0  0  0  0  0  0  0  0
   -4.4104    0.9280    0.1451 C   0  0  0  0  0  0  0  0  0  0  0  0
   -3.6064    1.8214    1.0528 C   0  0  0  0  0  0  0  0  0  0  0  0
    6.6649   -0.7628   -3.0665 H   0  0  0  0  0  0  0  0  0  0  0  0
    5.8172   -2.2683   -2.7095 H   0  0  0  0  0  0  0  0  0  0  0  0
    7.3919   -1.9372   -1.9422 H   0  0  0  0  0  0  0  0  0  0  0  0
    4.7742   -2.6219   -0.4816 H   0  0  0  0  0  0  0  0  0  0  0  0
    3.6495   -2.9343    1.4782 H   0  0  0  0  0  0  0  0  0  0  0  0
    3.6439   -1.7468    2.7570 H   0  0  0  0  0  0  0  0  0  0  0  0
    2.3837   -1.7108    1.4772 H   0  0  0  0  0  0  0  0  0  0  0  0
    6.0521    2.7654    1.5418 H   0  0  0  0  0  0  0  0  0  0  0  0
    6.5740    2.9126   -0.1242 H   0  0  0  0  0  0  0  0  0  0  0  0
    4.8860    3.2366    0.2514 H   0  0  0  0  0  0  0  0  0  0  0  0
    6.6723    1.0810   -1.4614 H   0  0  0  0  0  0  0  0  0  0  0  0
    1.5488    0.3982    3.0202 H   0  0  0  0  0  0  0  0  0  0  0  0
    0.8872    2.3909    1.6136 H   0  0  0  0  0  0  0  0  0  0  0  0
    1.9170    1.7210    0.3246 H   0  0  0  0  0  0  0  0  0  0  0  0
   -1.8730   -2.2854   -1.3816 H   0  0  0  0  0  0  0  0  0  0  0  0
   -0.7719   -1.4660   -2.3451 H   0  0  0  0  0  0  0  0  0  0  0  0
   -6.1411   -3.0742   -1.3166 H   0  0  0  0  0  0  0  0  0  0  0  0
   -5.2912   -3.1553    0.2067 H   0  0  0  0  0  0  0  0  0  0  0  0
   -4.3812   -3.1236   -1.3500 H   0  0  0  0  0  0  0  0  0  0  0  0
   -6.7408   -1.0860   -2.2387 H   0  0  0  0  0  0  0  0  0  0  0  0
   -7.3481    2.5693   -2.1170 H   0  0  0  0  0  0  0  0  0  0  0  0
   -6.6279    1.6854   -3.4840 H   0  0  0  0  0  0  0  0  0  0  0  0
   -8.0285    1.0167   -2.6060 H   0  0  0  0  0  0  0  0  0  0  0  0
   -5.3826    2.6658   -0.7020 H   0  0  0  0  0  0  0  0  0  0  0  0
   -4.1335    2.7661    1.2360 H   0  0  0  0  0  0  0  0  0  0  0  0
   -3.4540    1.3786    2.0397 H   0  0  0  0  0  0  0  0  0  0  0  0
   -2.6461    2.0643    0.5897 H   0  0  0  0  0  0  0  0  0  0  0  0
  1  2  1  0
  2  3  2  0
  3  4  1  0
  4  5  1  0
  4  6  2  0
  6  7  1  0
  7  8  1  0
  7  9  2  0
  6 10  1  0
 10 11  2  0
 10 12  2  0
 10 13  1  0
 13 14  1  0
 14 15  1  0
 15 16  1  0
 16 17  2  0
 17 18  1  0
 17 19  1  0
 19 20  1  0
 19 21  1  0
 21 22  2  0
 21 23  2  0
 21 24  1  0
 24 25  2  0
 25 26  1  0
 25 27  1  0
 27 28  2  0
 28 29  1  0
 28 30  1  0
 30 31  2  0
 31 32  1  0
  9  2  1  0
 20 15  2  0
 31 24  1  0
  1 33  1  0
  1 34  1  0
  1 35  1  0
  3 36  1  0
  5 37  1  0
  5 38  1  0
  5 39  1  0
  8 40  1  0
  8 41  1  0
  8 42  1  0
  9 43  1  0
 13 44  1  0
 14 45  1  0
 14 46  1  0
 18 47  1  0
 18 48  1  0
 26 49  1  0
 26 50  1  0
 26 51  1  0
 27 52  1  0
 29 53  1  0
 29 54  1  0
 29 55  1  0
 30 56  1  0
 32 57  1  0
 32 58  1  0
 32 59  1  0
M  END
>  <Unnamed: 0>  (220) 
1407

>  <ID>  (220) 
TRAIN_1407

>  <Canonical_Smiles>  (220) 
Cc1cc(C)c(c(C)c1)S(=O)(=O)NCc2nc(N)n(n2)S(=O)(=O)c3c(C)cc(C)cc3C

>  <Inhibition>  (220) 
81.1

>  <TDC_conf_true_inhibitor>  (220) 
1

>  <TDC_conf_non_inhibitor>  (220) 
0

>  <split>  (220) 
1

$$$$
220
     RDKit          3D

 35 38  0  0  0  0  0  0  0  0999 V2000
    3.5626   -0.2252    2.1280 N   0  0  0  0  0  0  0  0  0  0  0  0
    3.3573   -0.7131    0.8463 C   0  0  0  0  0  0  0  0  0  0  0  0
    4.3171   -0.6503   -0.0965 C   0  0  0  0  0  0  0  0  0  0  0  0
    3.9497   -1.1982   -1.4085 C   0  0  0  0  0  0  0  0  0  0  0  0
    4.9614   -1.1059   -2.2792 O   0  0  0  0  0  0  0  0  0  0  0  0
    2.8393   -1.7187   -1.7905 N   0  0  0  0  0  0  0  0  0  0  0  0
    1.8779   -1.7615   -0.8218 C   0  0  0  0  0  0  0  0  0  0  0  0
    0.6314   -2.1851   -0.9036 N   0  0  0  0  0  0  0  0  0  0  0  0
    0.0375   -2.0345    0.3216 N   0  0  0  0  0  0  0  0  0  0  0  0
    0.9267   -1.5162    1.1342 C   0  0  0  0  0  0  0  0  0  0  0  0
    0.5837   -1.0709    2.7711 S   0  0  0  0  0  0  0  0  0  0  0  0
   -0.8626    0.0100    2.5008 C   0  0  0  0  0  0  0  0  0  0  0  0
   -0.5343    1.1487    1.6065 C   0  0  0  0  0  0  0  0  0  0  0  0
    0.4805    1.9710    1.8241 N   0  0  0  0  0  0  0  0  0  0  0  0
    0.3697    2.9805    0.9226 N   0  0  0  0  0  0  0  0  0  0  0  0
   -0.6884    2.8102    0.1542 N   0  0  0  0  0  0  0  0  0  0  0  0
   -1.2488    1.6226    0.5088 N   0  0  0  0  0  0  0  0  0  0  0  0
   -2.3677    1.1369   -0.2266 C   0  0  0  0  0  0  0  0  0  0  0  0
   -3.0746    2.0399   -1.0435 C   0  0  0  0  0  0  0  0  0  0  0  0
   -4.1750    1.6187   -1.7970 C   0  0  0  0  0  0  0  0  0  0  0  0
   -4.5835    0.2870   -1.7564 C   0  0  0  0  0  0  0  0  0  0  0  0
   -5.9475   -0.1662   -2.7115 Cl  0  0  0  0  0  0  0  0  0  0  0  0
   -3.8783   -0.6236   -0.9656 C   0  0  0  0  0  0  0  0  0  0  0  0
   -4.3151   -2.2944   -0.8762 Cl  0  0  0  0  0  0  0  0  0  0  0  0
   -2.7722   -0.2013   -0.2089 C   0  0  0  0  0  0  0  0  0  0  0  0
    2.1180   -1.2924    0.4772 N   0  0  0  0  0  0  0  0  0  0  0  0
    2.7132    0.1114    2.5870 H   0  0  0  0  0  0  0  0  0  0  0  0
    4.3181    0.4536    2.2058 H   0  0  0  0  0  0  0  0  0  0  0  0
    5.3043   -0.2393    0.0545 H   0  0  0  0  0  0  0  0  0  0  0  0
    4.6617   -1.4871   -3.1230 H   0  0  0  0  0  0  0  0  0  0  0  0
   -1.1266    0.4225    3.4819 H   0  0  0  0  0  0  0  0  0  0  0  0
   -1.7182   -0.5904    2.2029 H   0  0  0  0  0  0  0  0  0  0  0  0
   -2.7899    3.0913   -1.1050 H   0  0  0  0  0  0  0  0  0  0  0  0
   -4.7072    2.3401   -2.4142 H   0  0  0  0  0  0  0  0  0  0  0  0
   -2.2203   -0.9699    0.3166 H   0  0  0  0  0  0  0  0  0  0  0  0
  1  2  1  0
  2  3  2  0
  3  4  1  0
  4  5  1  0
  4  6  2  0
  6  7  1  0
  7  8  2  0
  8  9  1  0
  9 10  2  0
 10 11  1  0
 11 12  1  0
 12 13  1  0
 13 14  2  0
 14 15  1  0
 15 16  2  0
 16 17  1  0
 17 18  1  0
 18 19  2  0
 19 20  1  0
 20 21  2  0
 21 22  1  0
 21 23  1  0
 23 24  1  0
 23 25  2  0
 10 26  1  0
 26  2  1  0
 26  7  1  0
 17 13  1  0
 25 18  1  0
  1 27  1  0
  1 28  1  0
  3 29  1  0
  5 30  1  0
 12 31  1  0
 12 32  1  0
 19 33  1  0
 20 34  1  0
 25 35  1  0
M  END
>  <Unnamed: 0>  (221) 
1411

>  <ID>  (221) 
TRAIN_1411

>  <Canonical_Smiles>  (221) 
Nc1cc(O)nc2nnc(SCc3nnnn3c4ccc(Cl)c(Cl)c4)n12

>  <Inhibition>  (221) 
30.8

>  <TDC_conf_true_inhibitor>  (221) 
0

>  <TDC_conf_non_inhibitor>  (221) 
1

>  <split>  (221) 
1

$$$$
221
     RDKit          3D

 37 39  0  0  0  0  0  0  0  0999 V2000
    5.3158    3.4913   -2.9116 Cl  0  0  0  0  0  0  0  0  0  0  0  0
    4.6041    2.0679   -2.2724 C   0  0  0  0  0  0  0  0  0  0  0  0
    4.8408    0.8306   -2.8525 C   0  0  0  0  0  0  0  0  0  0  0  0
    4.2467   -0.3083   -2.3013 C   0  0  0  0  0  0  0  0  0  0  0  0
    3.4275   -0.1711   -1.1868 C   0  0  0  0  0  0  0  0  0  0  0  0
    2.7858   -1.2297   -0.5444 N   0  0  0  0  0  0  0  0  0  0  0  0
    2.7585   -2.5571   -0.9082 C   0  0  0  0  0  0  0  0  0  0  0  0
    3.2993   -3.0376   -1.9018 O   0  0  0  0  0  0  0  0  0  0  0  0
    1.9665   -3.4370    0.0473 C   0  0  0  0  0  0  0  0  0  0  0  0
    0.2632   -3.6443   -0.5463 S   0  0  0  0  0  0  0  0  0  0  0  0
   -0.3982   -2.0895   -0.1564 C   0  0  0  0  0  0  0  0  0  0  0  0
   -1.5440   -1.5989   -0.7206 O   0  0  0  0  0  0  0  0  0  0  0  0
   -1.6403   -0.3642   -0.1363 C   0  0  0  0  0  0  0  0  0  0  0  0
   -2.7850    0.4980   -0.5314 C   0  0  0  0  0  0  0  0  0  0  0  0
   -3.5553    0.9002    0.6472 N   0  0  0  0  0  0  0  0  0  0  0  0
   -3.1998    2.0355    1.3491 C   0  0  0  0  0  0  0  0  0  0  0  0
   -3.8501    2.4141    2.4520 C   0  0  0  0  0  0  0  0  0  0  0  0
   -4.9761    1.5961    2.9300 C   0  0  0  0  0  0  0  0  0  0  0  0
   -5.6034    1.9093    3.9349 O   0  0  0  0  0  0  0  0  0  0  0  0
   -5.2605    0.4875    2.1875 N   0  0  0  0  0  0  0  0  0  0  0  0
   -4.5862    0.0715    1.0692 C   0  0  0  0  0  0  0  0  0  0  0  0
   -4.9008   -0.9729    0.5023 O   0  0  0  0  0  0  0  0  0  0  0  0
   -0.6467   -0.1138    0.6926 N   0  0  0  0  0  0  0  0  0  0  0  0
    0.1490   -1.2369    0.6878 N   0  0  0  0  0  0  0  0  0  0  0  0
    3.1863    1.0278   -0.6131 N   0  0  0  0  0  0  0  0  0  0  0  0
    3.7789    2.1173   -1.1632 C   0  0  0  0  0  0  0  0  0  0  0  0
    5.4830    0.7367   -3.7231 H   0  0  0  0  0  0  0  0  0  0  0  0
    4.4454   -1.2704   -2.7585 H   0  0  0  0  0  0  0  0  0  0  0  0
    2.2061   -0.9111    0.2284 H   0  0  0  0  0  0  0  0  0  0  0  0
    1.9935   -3.0418    1.0682 H   0  0  0  0  0  0  0  0  0  0  0  0
    2.4506   -4.4189    0.0772 H   0  0  0  0  0  0  0  0  0  0  0  0
   -2.4192    1.3931   -1.0481 H   0  0  0  0  0  0  0  0  0  0  0  0
   -3.4391   -0.0338   -1.2313 H   0  0  0  0  0  0  0  0  0  0  0  0
   -2.3555    2.6106    0.9764 H   0  0  0  0  0  0  0  0  0  0  0  0
   -3.5884    3.2938    3.0259 H   0  0  0  0  0  0  0  0  0  0  0  0
   -6.0130   -0.1009    2.5102 H   0  0  0  0  0  0  0  0  0  0  0  0
    3.5608    3.0567   -0.6633 H   0  0  0  0  0  0  0  0  0  0  0  0
  1  2  1  0
  2  3  2  0
  3  4  1  0
  4  5  2  0
  5  6  1  0
  6  7  1  0
  7  8  2  0
  7  9  1  0
  9 10  1  0
 10 11  1  0
 11 12  1  0
 12 13  1  0
 13 14  1  0
 14 15  1  0
 15 16  1  0
 16 17  2  0
 17 18  1  0
 18 19  2  0
 18 20  1  0
 20 21  1  0
 21 22  2  0
 13 23  2  0
 23 24  1  0
  5 25  1  0
 25 26  2  0
 26  2  1  0
 24 11  2  0
 21 15  1  0
  3 27  1  0
  4 28  1  0
  6 29  1  0
  9 30  1  0
  9 31  1  0
 14 32  1  0
 14 33  1  0
 16 34  1  0
 17 35  1  0
 20 36  1  0
 26 37  1  0
M  END
>  <Unnamed: 0>  (222) 
1416

>  <ID>  (222) 
TRAIN_1416

>  <Canonical_Smiles>  (222) 
Clc1ccc(NC(=O)CSc2oc(CN3C=CC(=O)NC3=O)nn2)nc1

>  <Inhibition>  (222) 
5.99

>  <TDC_conf_true_inhibitor>  (222) 
0

>  <TDC_conf_non_inhibitor>  (222) 
1

>  <split>  (222) 
1

$$$$
222
     RDKit          3D

 51 54  0  0  0  0  0  0  0  0999 V2000
   -5.4859    3.4841   -1.5711 C   0  0  0  0  0  0  0  0  0  0  0  0
   -4.2448    2.9908   -0.8494 C   0  0  0  0  0  0  0  0  0  0  0  0
   -3.9807    1.6617   -1.2893 O   0  0  0  0  0  0  0  0  0  0  0  0
   -2.9902    0.9728   -0.6415 C   0  0  0  0  0  0  0  0  0  0  0  0
   -2.0548    1.5392    0.2251 C   0  0  0  0  0  0  0  0  0  0  0  0
   -1.0740    0.7409    0.8280 C   0  0  0  0  0  0  0  0  0  0  0  0
   -1.0088   -0.6342    0.5746 C   0  0  0  0  0  0  0  0  0  0  0  0
   -1.9441   -1.2035   -0.2952 C   0  0  0  0  0  0  0  0  0  0  0  0
   -2.9107   -0.4006   -0.9095 C   0  0  0  0  0  0  0  0  0  0  0  0
   -3.8445   -0.9806   -1.7319 O   0  0  0  0  0  0  0  0  0  0  0  0
   -3.2543   -1.3512   -2.9812 C   0  0  0  0  0  0  0  0  0  0  0  0
    0.0175   -1.4663    1.2086 C   0  0  0  0  0  0  0  0  0  0  0  0
   -0.3235   -2.6333    1.8712 N   0  0  0  0  0  0  0  0  0  0  0  0
    0.7972   -3.2061    2.3820 C   0  0  0  0  0  0  0  0  0  0  0  0
    0.8548   -4.3746    3.0903 N   0  0  0  0  0  0  0  0  0  0  0  0
    2.0796   -4.8224    3.5289 C   0  0  0  0  0  0  0  0  0  0  0  0
    2.1878   -5.8688    4.1641 O   0  0  0  0  0  0  0  0  0  0  0  0
    3.1774   -4.0491    3.2249 N   0  0  0  0  0  0  0  0  0  0  0  0
    3.1942   -2.8562    2.5249 C   0  0  0  0  0  0  0  0  0  0  0  0
    4.2361   -2.2418    2.3251 O   0  0  0  0  0  0  0  0  0  0  0  0
    1.8852   -2.4294    2.0786 C   0  0  0  0  0  0  0  0  0  0  0  0
    1.4044   -1.3174    1.3289 C   0  0  0  0  0  0  0  0  0  0  0  0
    2.1545   -0.2081    0.7579 C   0  0  0  0  0  0  0  0  0  0  0  0
    2.9321    0.6122    1.5799 C   0  0  0  0  0  0  0  0  0  0  0  0
    3.6282    1.6951    1.0351 C   0  0  0  0  0  0  0  0  0  0  0  0
    3.5583    1.9739   -0.3326 C   0  0  0  0  0  0  0  0  0  0  0  0
    4.2836    3.0620   -0.7330 O   0  0  0  0  0  0  0  0  0  0  0  0
    4.1335    3.4710   -2.0854 C   0  0  0  0  0  0  0  0  0  0  0  0
    2.7943    1.1488   -1.1586 C   0  0  0  0  0  0  0  0  0  0  0  0
    2.0967    0.0629   -0.6152 C   0  0  0  0  0  0  0  0  0  0  0  0
   -5.3361    3.4621   -2.6551 H   0  0  0  0  0  0  0  0  0  0  0  0
   -5.7336    4.5052   -1.2686 H   0  0  0  0  0  0  0  0  0  0  0  0
   -6.3404    2.8344   -1.3557 H   0  0  0  0  0  0  0  0  0  0  0  0
   -3.4024    3.6448   -1.0992 H   0  0  0  0  0  0  0  0  0  0  0  0
   -4.4284    3.0097    0.2306 H   0  0  0  0  0  0  0  0  0  0  0  0
   -2.0508    2.6007    0.4489 H   0  0  0  0  0  0  0  0  0  0  0  0
   -0.3592    1.2091    1.5028 H   0  0  0  0  0  0  0  0  0  0  0  0
   -1.9252   -2.2679   -0.5094 H   0  0  0  0  0  0  0  0  0  0  0  0
   -2.6377   -0.5435   -3.4014 H   0  0  0  0  0  0  0  0  0  0  0  0
   -2.6597   -2.2690   -2.8721 H   0  0  0  0  0  0  0  0  0  0  0  0
   -4.0661   -1.5574   -3.6854 H   0  0  0  0  0  0  0  0  0  0  0  0
   -1.2676   -2.9820    1.9674 H   0  0  0  0  0  0  0  0  0  0  0  0
    0.0416   -4.9364    3.3067 H   0  0  0  0  0  0  0  0  0  0  0  0
    4.0687   -4.3847    3.5531 H   0  0  0  0  0  0  0  0  0  0  0  0
    3.0076    0.4177    2.6465 H   0  0  0  0  0  0  0  0  0  0  0  0
    4.2276    2.3304    1.6854 H   0  0  0  0  0  0  0  0  0  0  0  0
    3.0913    3.7192   -2.3101 H   0  0  0  0  0  0  0  0  0  0  0  0
    4.5145    2.7098   -2.7733 H   0  0  0  0  0  0  0  0  0  0  0  0
    4.7308    4.3766   -2.2301 H   0  0  0  0  0  0  0  0  0  0  0  0
    2.7202    1.3175   -2.2280 H   0  0  0  0  0  0  0  0  0  0  0  0
    1.5060   -0.5680   -1.2744 H   0  0  0  0  0  0  0  0  0  0  0  0
  1  2  1  0
  2  3  1  0
  3  4  1  0
  4  5  2  0
  5  6  1  0
  6  7  2  0
  7  8  1  0
  8  9  2  0
  9 10  1  0
 10 11  1  0
  7 12  1  0
 12 13  1  0
 13 14  1  0
 14 15  1  0
 15 16  1  0
 16 17  2  0
 16 18  1  0
 18 19  1  0
 19 20  2  0
 19 21  1  0
 21 22  1  0
 22 23  1  0
 23 24  2  0
 24 25  1  0
 25 26  2  0
 26 27  1  0
 27 28  1  0
 26 29  1  0
 29 30  2  0
  9  4  1  0
 22 12  2  0
 21 14  2  0
 30 23  1  0
  1 31  1  0
  1 32  1  0
  1 33  1  0
  2 34  1  0
  2 35  1  0
  5 36  1  0
  6 37  1  0
  8 38  1  0
 11 39  1  0
 11 40  1  0
 11 41  1  0
 13 42  1  0
 15 43  1  0
 18 44  1  0
 24 45  1  0
 25 46  1  0
 28 47  1  0
 28 48  1  0
 28 49  1  0
 29 50  1  0
 30 51  1  0
M  END
>  <Unnamed: 0>  (223) 
1424

>  <ID>  (223) 
TRAIN_1424

>  <Canonical_Smiles>  (223) 
CCOc1ccc(cc1OC)c2[nH]c3NC(=O)NC(=O)c3c2c4ccc(OC)cc4

>  <Inhibition>  (223) 
37.2

>  <TDC_conf_true_inhibitor>  (223) 
1

>  <TDC_conf_non_inhibitor>  (223) 
0

>  <split>  (223) 
1

$$$$
223
     RDKit          3D

 26 28  0  0  0  0  0  0  0  0999 V2000
   -4.9800   -0.2273   -2.4338 Cl  0  0  0  0  0  0  0  0  0  0  0  0
   -3.8571   -0.6026   -1.2252 C   0  0  0  0  0  0  0  0  0  0  0  0
   -3.9632   -1.7625   -0.5567 N   0  0  0  0  0  0  0  0  0  0  0  0
   -3.0581   -2.0754    0.4412 N   0  0  0  0  0  0  0  0  0  0  0  0
   -2.0409   -1.2481    0.7737 C   0  0  0  0  0  0  0  0  0  0  0  0
   -1.0506   -1.7864    2.0485 Cl  0  0  0  0  0  0  0  0  0  0  0  0
   -1.9197   -0.0470    0.0852 C   0  0  0  0  0  0  0  0  0  0  0  0
   -2.8339    0.2943   -0.9209 C   0  0  0  0  0  0  0  0  0  0  0  0
   -2.5309    1.5364   -1.4454 N   0  0  0  0  0  0  0  0  0  0  0  0
   -1.4719    1.9464   -0.7925 C   0  0  0  0  0  0  0  0  0  0  0  0
   -1.0477    1.0198    0.1236 N   0  0  0  0  0  0  0  0  0  0  0  0
    0.1163    1.2146    0.9784 C   0  0  0  0  0  0  0  0  0  0  0  0
    1.3226    0.4255    0.5284 C   0  0  0  0  0  0  0  0  0  0  0  0
    1.7259    0.3804   -0.8160 C   0  0  0  0  0  0  0  0  0  0  0  0
    2.8650   -0.3335   -1.1949 C   0  0  0  0  0  0  0  0  0  0  0  0
    3.6248   -0.9986   -0.2363 C   0  0  0  0  0  0  0  0  0  0  0  0
    3.2511   -0.9455    1.1035 C   0  0  0  0  0  0  0  0  0  0  0  0
    2.1131   -0.2323    1.4847 C   0  0  0  0  0  0  0  0  0  0  0  0
   -0.9677    2.8929   -0.9488 H   0  0  0  0  0  0  0  0  0  0  0  0
   -0.1890    0.9597    1.9986 H   0  0  0  0  0  0  0  0  0  0  0  0
    0.3661    2.2824    0.9764 H   0  0  0  0  0  0  0  0  0  0  0  0
    1.1624    0.8958   -1.5909 H   0  0  0  0  0  0  0  0  0  0  0  0
    3.1606   -0.3693   -2.2408 H   0  0  0  0  0  0  0  0  0  0  0  0
    4.5100   -1.5552   -0.5333 H   0  0  0  0  0  0  0  0  0  0  0  0
    3.8466   -1.4605    1.8535 H   0  0  0  0  0  0  0  0  0  0  0  0
    1.8463   -0.2039    2.5397 H   0  0  0  0  0  0  0  0  0  0  0  0
  1  2  1  0
  2  3  2  0
  3  4  1  0
  4  5  2  0
  5  6  1  0
  5  7  1  0
  7  8  2  0
  8  9  1  0
  9 10  2  0
 10 11  1  0
 11 12  1  0
 12 13  1  0
 13 14  2  0
 14 15  1  0
 15 16  2  0
 16 17  1  0
 17 18  2  0
  8  2  1  0
 11  7  1  0
 18 13  1  0
 10 19  1  0
 12 20  1  0
 12 21  1  0
 14 22  1  0
 15 23  1  0
 16 24  1  0
 17 25  1  0
 18 26  1  0
M  END
>  <Unnamed: 0>  (224) 
1427

>  <ID>  (224) 
TRAIN_1427

>  <Canonical_Smiles>  (224) 
Clc1nnc(Cl)c2c1ncn2Cc3ccccc3

>  <Inhibition>  (224) 
0.5

>  <TDC_conf_true_inhibitor>  (224) 
0

>  <TDC_conf_non_inhibitor>  (224) 
1

>  <split>  (224) 
1

$$$$
224
     RDKit          3D

 29 31  0  0  0  0  0  0  0  0999 V2000
    4.5348    1.8294   -0.2521 C   0  0  0  0  0  0  0  0  0  0  0  0
    3.2605    1.0184   -0.1571 C   0  0  0  0  0  0  0  0  0  0  0  0
    2.1390    1.6715   -0.2652 N   0  0  0  0  0  0  0  0  0  0  0  0
    0.9946    0.9386   -0.1793 C   0  0  0  0  0  0  0  0  0  0  0  0
   -0.2529    1.3363   -0.2532 N   0  0  0  0  0  0  0  0  0  0  0  0
   -0.9975    0.1985   -0.1042 C   0  0  0  0  0  0  0  0  0  0  0  0
   -0.2546   -0.9014    0.0605 N   0  0  0  0  0  0  0  0  0  0  0  0
    1.0141   -0.4420    0.0147 N   0  0  0  0  0  0  0  0  0  0  0  0
    2.2113   -1.1598    0.1332 C   0  0  0  0  0  0  0  0  0  0  0  0
    2.0834   -2.6428    0.3396 C   0  0  0  0  0  0  0  0  0  0  0  0
    3.3688   -0.4750    0.0540 C   0  0  0  0  0  0  0  0  0  0  0  0
    4.9242   -1.1923    0.1777 Cl  0  0  0  0  0  0  0  0  0  0  0  0
   -2.3801    0.2255   -0.1262 N   0  0  0  0  0  0  0  0  0  0  0  0
   -3.1617   -0.8872    0.0408 C   0  0  0  0  0  0  0  0  0  0  0  0
   -2.8470   -2.0482    0.2637 O   0  0  0  0  0  0  0  0  0  0  0  0
   -4.5986   -0.4849   -0.1154 C   0  0  0  0  0  0  0  0  0  0  0  0
   -4.5672    1.0219   -0.2047 C   0  0  0  0  0  0  0  0  0  0  0  0
   -3.1115    1.3674   -0.3183 C   0  0  0  0  0  0  0  0  0  0  0  0
   -2.7472    2.5142   -0.5346 O   0  0  0  0  0  0  0  0  0  0  0  0
    4.3017    2.8878   -0.4042 H   0  0  0  0  0  0  0  0  0  0  0  0
    5.1078    1.7337    0.6743 H   0  0  0  0  0  0  0  0  0  0  0  0
    5.1340    1.4847   -1.0994 H   0  0  0  0  0  0  0  0  0  0  0  0
    1.5248   -2.8530    1.2584 H   0  0  0  0  0  0  0  0  0  0  0  0
    1.5509   -3.1003   -0.5015 H   0  0  0  0  0  0  0  0  0  0  0  0
    3.0460   -3.1535    0.4257 H   0  0  0  0  0  0  0  0  0  0  0  0
   -5.0003   -0.9307   -1.0306 H   0  0  0  0  0  0  0  0  0  0  0  0
   -5.1851   -0.8230    0.7435 H   0  0  0  0  0  0  0  0  0  0  0  0
   -4.9779    1.4838    0.6985 H   0  0  0  0  0  0  0  0  0  0  0  0
   -5.1145    1.3824   -1.0803 H   0  0  0  0  0  0  0  0  0  0  0  0
  1  2  1  0
  2  3  2  0
  3  4  1  0
  4  5  2  0
  5  6  1  0
  6  7  2  0
  7  8  1  0
  8  9  1  0
  9 10  1  0
  9 11  2  0
 11 12  1  0
  6 13  1  0
 13 14  1  0
 14 15  2  0
 14 16  1  0
 16 17  1  0
 17 18  1  0
 18 19  2  0
 11  2  1  0
  8  4  1  0
 18 13  1  0
  1 20  1  0
  1 21  1  0
  1 22  1  0
 10 23  1  0
 10 24  1  0
 10 25  1  0
 16 26  1  0
 16 27  1  0
 17 28  1  0
 17 29  1  0
M  END
>  <Unnamed: 0>  (225) 
1431

>  <ID>  (225) 
TRAIN_1431

>  <Canonical_Smiles>  (225) 
Cc1nc2nc(nn2c(C)c1Cl)N3C(=O)CCC3=O

>  <Inhibition>  (225) 
0.08

>  <TDC_conf_true_inhibitor>  (225) 
0

>  <TDC_conf_non_inhibitor>  (225) 
1

>  <split>  (225) 
1

$$$$
225
     RDKit          3D

 34 36  0  0  0  0  0  0  0  0999 V2000
   -4.6310   -0.5525    0.3474 C   0  0  0  0  0  0  0  0  0  0  0  0
   -3.2278   -0.0610    0.1063 C   0  0  0  0  0  0  0  0  0  0  0  0
   -2.0938   -0.6997    0.4678 C   0  0  0  0  0  0  0  0  0  0  0  0
   -2.0741   -1.9933    1.2446 C   0  0  0  0  0  0  0  0  0  0  0  0
   -0.7859   -0.1069    0.1054 C   0  0  0  0  0  0  0  0  0  0  0  0
    0.4424   -0.7236    0.3869 C   0  0  0  0  0  0  0  0  0  0  0  0
    1.6682   -0.1361    0.0239 C   0  0  0  0  0  0  0  0  0  0  0  0
    1.6572    1.1084   -0.6312 C   0  0  0  0  0  0  0  0  0  0  0  0
    2.8616    1.6501   -1.0029 O   0  0  0  0  0  0  0  0  0  0  0  0
    0.4518    1.7684   -0.9135 C   0  0  0  0  0  0  0  0  0  0  0  0
    0.4272    3.1033   -1.6069 C   0  0  0  0  0  0  0  0  0  0  0  0
   -0.7473    1.1240   -0.5508 C   0  0  0  0  0  0  0  0  0  0  0  0
   -1.9489    1.7782   -0.8856 O   0  0  0  0  0  0  0  0  0  0  0  0
   -3.1926    1.2477   -0.6032 C   0  0  0  0  0  0  0  0  0  0  0  0
   -4.2176    1.8422   -0.9201 O   0  0  0  0  0  0  0  0  0  0  0  0
    2.9146   -0.8357    0.3411 C   0  0  0  0  0  0  0  0  0  0  0  0
    4.0982   -0.3970    0.9024 C   0  0  0  0  0  0  0  0  0  0  0  0
    4.9276   -1.5305    0.9582 C   0  0  0  0  0  0  0  0  0  0  0  0
    4.3322   -2.6182    0.4661 N   0  0  0  0  0  0  0  0  0  0  0  0
    3.1287   -2.1651    0.0753 N   0  0  0  0  0  0  0  0  0  0  0  0
   -5.1023    0.0284    1.1470 H   0  0  0  0  0  0  0  0  0  0  0  0
   -4.6857   -1.6089    0.6167 H   0  0  0  0  0  0  0  0  0  0  0  0
   -5.2392   -0.4502   -0.5588 H   0  0  0  0  0  0  0  0  0  0  0  0
   -1.6755   -2.8058    0.6275 H   0  0  0  0  0  0  0  0  0  0  0  0
   -3.0562   -2.3092    1.6014 H   0  0  0  0  0  0  0  0  0  0  0  0
   -1.4567   -1.8943    2.1447 H   0  0  0  0  0  0  0  0  0  0  0  0
    0.4677   -1.6752    0.9119 H   0  0  0  0  0  0  0  0  0  0  0  0
    2.7248    2.3662   -1.6412 H   0  0  0  0  0  0  0  0  0  0  0  0
    0.6538    2.9756   -2.6701 H   0  0  0  0  0  0  0  0  0  0  0  0
    1.1611    3.7816   -1.1586 H   0  0  0  0  0  0  0  0  0  0  0  0
   -0.5412    3.6051   -1.5223 H   0  0  0  0  0  0  0  0  0  0  0  0
    4.3246    0.6085    1.2276 H   0  0  0  0  0  0  0  0  0  0  0  0
    5.9385   -1.6082    1.3368 H   0  0  0  0  0  0  0  0  0  0  0  0
    2.4955   -2.8163   -0.3741 H   0  0  0  0  0  0  0  0  0  0  0  0
  1  2  1  0
  2  3  2  0
  3  4  1  0
  3  5  1  0
  5  6  2  0
  6  7  1  0
  7  8  2  0
  8  9  1  0
  8 10  1  0
 10 11  1  0
 10 12  2  0
 12 13  1  0
 13 14  1  0
 14 15  2  0
  7 16  1  0
 16 17  2  0
 17 18  1  0
 18 19  2  0
 19 20  1  0
 14  2  1  0
 12  5  1  0
 20 16  1  0
  1 21  1  0
  1 22  1  0
  1 23  1  0
  4 24  1  0
  4 25  1  0
  4 26  1  0
  6 27  1  0
  9 28  1  0
 11 29  1  0
 11 30  1  0
 11 31  1  0
 17 32  1  0
 18 33  1  0
 20 34  1  0
M  END
>  <Unnamed: 0>  (226) 
1433

>  <ID>  (226) 
TRAIN_1433

>  <Canonical_Smiles>  (226) 
CC1=C(C)c2cc(c(O)c(C)c2OC1=O)c3ccn[nH]3

>  <Inhibition>  (226) 
42.1

>  <TDC_conf_true_inhibitor>  (226) 
1

>  <TDC_conf_non_inhibitor>  (226) 
0

>  <split>  (226) 
1

$$$$
226
     RDKit          3D

 50 53  0  0  0  0  0  0  0  0999 V2000
   -5.6926   -1.4963   -1.1662 C   0  0  0  0  0  0  0  0  0  0  0  0
   -4.3317   -1.5186   -0.0122 S   0  0  0  0  0  6  0  0  0  0  0  0
   -4.8186   -2.0373    1.2471 O   0  0  0  0  0  0  0  0  0  0  0  0
   -3.1888   -2.1102   -0.6704 O   0  0  0  0  0  0  0  0  0  0  0  0
   -3.9850    0.1062    0.2259 N   0  0  0  0  0  0  0  0  0  0  0  0
   -4.9570    0.9576    0.9473 C   0  0  0  0  0  0  0  0  0  0  0  0
   -5.1131    2.1912    0.0721 C   0  0  0  0  0  0  0  0  0  0  0  0
   -3.7470    2.3334   -0.5700 C   0  0  0  0  0  0  0  0  0  0  0  0
   -3.3683    0.8875   -0.8929 C   0  0  1  0  0  0  0  0  0  0  0  0
   -1.8520    0.7466   -0.9705 C   0  0  0  0  0  0  0  0  0  0  0  0
   -1.2189    1.1092   -1.9588 O   0  0  0  0  0  0  0  0  0  0  0  0
   -1.2673    0.2646    0.1826 N   0  0  0  0  0  0  0  0  0  0  0  0
    0.1690   -0.0375    0.2757 C   0  0  2  0  0  0  0  0  0  0  0  0
    0.6280   -1.2534   -0.5587 C   0  0  0  0  0  0  0  0  0  0  0  0
    1.4233   -1.7619    0.6667 C   0  0  2  0  0  0  0  0  0  0  0  0
    0.5605   -0.8251    1.5454 C   0  0  0  0  0  0  0  0  0  0  0  0
    2.8980   -1.4906    0.6441 C   0  0  0  0  0  0  0  0  0  0  0  0
    3.7326   -2.5388    0.6746 C   0  0  0  0  0  0  0  0  0  0  0  0
    5.1766   -2.2695    0.6384 C   0  0  0  0  0  0  0  0  0  0  0  0
    6.0010   -3.1754    0.6733 O   0  0  0  0  0  0  0  0  0  0  0  0
    5.5214   -0.9556    0.5633 N   0  0  0  0  0  0  0  0  0  0  0  0
    4.5819    0.0361    0.5361 C   0  0  0  0  0  0  0  0  0  0  0  0
    3.3088   -0.1805    0.5797 N   0  0  0  0  0  0  0  0  0  0  0  0
    5.0330    1.4467    0.4503 C   0  0  0  0  0  0  0  0  0  0  0  0
    6.2434    1.8481   -0.3591 C   0  0  0  0  0  0  0  0  0  0  0  0
    6.2839    1.9345    1.1408 C   0  0  0  0  0  0  0  0  0  0  0  0
   -5.3600   -1.0748   -2.1137 H   0  0  0  0  0  0  0  0  0  0  0  0
   -6.0101   -2.5295   -1.3201 H   0  0  0  0  0  0  0  0  0  0  0  0
   -6.5179   -0.9222   -0.7451 H   0  0  0  0  0  0  0  0  0  0  0  0
   -5.9207    0.4703    1.1149 H   0  0  0  0  0  0  0  0  0  0  0  0
   -4.5282    1.2201    1.9204 H   0  0  0  0  0  0  0  0  0  0  0  0
   -5.4079    3.0753    0.6444 H   0  0  0  0  0  0  0  0  0  0  0  0
   -5.8726    2.0119   -0.6988 H   0  0  0  0  0  0  0  0  0  0  0  0
   -3.0395    2.7869    0.1363 H   0  0  0  0  0  0  0  0  0  0  0  0
   -3.7712    2.9606   -1.4663 H   0  0  0  0  0  0  0  0  0  0  0  0
   -3.8043    0.5831   -1.8502 H   0  0  0  0  0  0  0  0  0  0  0  0
   -1.9251   -0.1438    0.8437 H   0  0  0  0  0  0  0  0  0  0  0  0
    0.7797    0.8595    0.1207 H   0  0  0  0  0  0  0  0  0  0  0  0
    1.2103   -1.0073   -1.4523 H   0  0  0  0  0  0  0  0  0  0  0  0
   -0.1792   -1.9338   -0.8565 H   0  0  0  0  0  0  0  0  0  0  0  0
    1.2106   -2.8180    0.8816 H   0  0  0  0  0  0  0  0  0  0  0  0
   -0.2720   -1.3484    2.0331 H   0  0  0  0  0  0  0  0  0  0  0  0
    1.0854   -0.2441    2.3102 H   0  0  0  0  0  0  0  0  0  0  0  0
    3.4188   -3.5717    0.7201 H   0  0  0  0  0  0  0  0  0  0  0  0
    6.5062   -0.7488    0.5317 H   0  0  0  0  0  0  0  0  0  0  0  0
    4.2049    2.1533    0.4301 H   0  0  0  0  0  0  0  0  0  0  0  0
    6.1842    2.7755   -0.9203 H   0  0  0  0  0  0  0  0  0  0  0  0
    6.8330    1.0845   -0.8514 H   0  0  0  0  0  0  0  0  0  0  0  0
    6.9009    1.2304    1.6852 H   0  0  0  0  0  0  0  0  0  0  0  0
    6.2533    2.9199    1.5935 H   0  0  0  0  0  0  0  0  0  0  0  0
  1  2  1  0
  2  3  2  0
  2  4  2  0
  2  5  1  0
  5  6  1  0
  6  7  1  0
  7  8  1  0
  8  9  1  0
  9 10  1  0
 10 11  2  0
 10 12  1  0
 12 13  1  0
 13 14  1  0
 14 15  1  0
 15 16  1  0
 15 17  1  0
 17 18  2  0
 18 19  1  0
 19 20  2  0
 19 21  1  0
 21 22  1  0
 22 23  2  0
 22 24  1  0
 24 25  1  0
 25 26  1  0
  9  5  1  0
 16 13  1  0
 23 17  1  0
 26 24  1  0
  1 27  1  0
  1 28  1  0
  1 29  1  0
  6 30  1  0
  6 31  1  0
  7 32  1  0
  7 33  1  0
  8 34  1  0
  8 35  1  0
  9 36  1  6
 12 37  1  0
 13 38  1  6
 14 39  1  0
 14 40  1  0
 15 41  1  1
 16 42  1  0
 16 43  1  0
 18 44  1  0
 21 45  1  0
 24 46  1  0
 25 47  1  0
 25 48  1  0
 26 49  1  0
 26 50  1  0
M  END
>  <Unnamed: 0>  (227) 
1449

>  <ID>  (227) 
TRAIN_1449

>  <Canonical_Smiles>  (227) 
CS(=O)(=O)N1CCC[C@H]1C(=O)N[C@@H]2C[C@H](C2)C3=CC(=O)NC(=N3)C4CC4

>  <Inhibition>  (227) 
26.899051

>  <TDC_conf_true_inhibitor>  (227) 
0

>  <TDC_conf_non_inhibitor>  (227) 
1

>  <split>  (227) 
1

$$$$
227
     RDKit          3D

 48 50  0  0  0  0  0  0  0  0999 V2000
    5.2842   -0.7992    1.8349 C   0  0  0  0  0  0  0  0  0  0  0  0
    4.4404   -0.8050    0.6910 O   0  0  0  0  0  0  0  0  0  0  0  0
    3.8501   -2.0898    0.4763 C   0  0  0  0  0  0  0  0  0  0  0  0
    2.8618   -2.0203   -0.6890 C   0  0  0  0  0  0  0  0  0  0  0  0
    1.5678   -1.5930   -0.2513 O   0  0  0  0  0  0  0  0  0  0  0  0
    1.2709   -0.2567   -0.1257 C   0  0  0  0  0  0  0  0  0  0  0  0
    2.0449    0.7735   -0.4975 C   0  0  0  0  0  0  0  0  0  0  0  0
    1.5830    2.1695   -0.3174 C   0  0  0  0  0  0  0  0  0  0  0  0
    2.2857    3.0874   -0.7344 O   0  0  0  0  0  0  0  0  0  0  0  0
    0.3566    2.3415    0.3178 N   0  0  0  0  0  0  0  0  0  0  0  0
   -0.1584    3.7075    0.4475 C   0  0  0  0  0  0  0  0  0  0  0  0
   -1.2813    3.9956   -0.5552 C   0  0  0  0  0  0  0  0  0  0  0  0
   -2.2013    2.9181   -0.7558 O   0  0  0  0  0  0  0  0  0  0  0  0
   -2.7755    2.3765    0.4294 C   0  0  0  0  0  0  0  0  0  0  0  0
   -1.7975    1.6041    1.3306 C   0  0  0  0  0  0  0  0  0  0  0  0
   -0.4609    1.2617    0.6923 C   0  0  0  0  0  0  0  0  0  0  0  0
   -0.0319    0.0004    0.4680 C   0  0  0  0  0  0  0  0  0  0  0  0
   -0.9205   -1.1392    0.8377 C   0  0  0  0  0  0  0  0  0  0  0  0
   -0.9084   -1.5910    1.9810 O   0  0  0  0  0  0  0  0  0  0  0  0
   -1.7679   -1.5929   -0.1488 N   0  0  0  0  0  0  0  0  0  0  0  0
   -2.7049   -2.6703    0.1027 C   0  0  0  0  0  0  0  0  0  0  0  0
   -3.6363   -2.6471   -1.1000 C   0  0  0  0  0  0  0  0  0  0  0  0
   -2.7298   -2.1543   -2.2211 C   0  0  0  0  0  0  0  0  0  0  0  0
   -1.8534   -1.1219   -1.5247 C   0  0  0  0  0  0  0  0  0  0  0  0
    6.0958   -1.5234    1.7161 H   0  0  0  0  0  0  0  0  0  0  0  0
    4.7070   -1.0234    2.7370 H   0  0  0  0  0  0  0  0  0  0  0  0
    5.7179    0.1991    1.9374 H   0  0  0  0  0  0  0  0  0  0  0  0
    3.3405   -2.4186    1.3892 H   0  0  0  0  0  0  0  0  0  0  0  0
    4.6523   -2.7940    0.2299 H   0  0  0  0  0  0  0  0  0  0  0  0
    3.2280   -1.4187   -1.5274 H   0  0  0  0  0  0  0  0  0  0  0  0
    2.7149   -3.0376   -1.0686 H   0  0  0  0  0  0  0  0  0  0  0  0
    3.0236    0.6737   -0.9436 H   0  0  0  0  0  0  0  0  0  0  0  0
   -0.5054    3.8559    1.4759 H   0  0  0  0  0  0  0  0  0  0  0  0
    0.6417    4.4430    0.3063 H   0  0  0  0  0  0  0  0  0  0  0  0
   -0.8400    4.2032   -1.5363 H   0  0  0  0  0  0  0  0  0  0  0  0
   -1.8371    4.8913   -0.2567 H   0  0  0  0  0  0  0  0  0  0  0  0
   -3.5603    1.6862    0.0995 H   0  0  0  0  0  0  0  0  0  0  0  0
   -3.2781    3.1708    0.9940 H   0  0  0  0  0  0  0  0  0  0  0  0
   -1.6102    2.1888    2.2410 H   0  0  0  0  0  0  0  0  0  0  0  0
   -2.3230    0.7222    1.7134 H   0  0  0  0  0  0  0  0  0  0  0  0
   -3.2300   -2.5230    1.0512 H   0  0  0  0  0  0  0  0  0  0  0  0
   -2.1364   -3.6056    0.1514 H   0  0  0  0  0  0  0  0  0  0  0  0
   -4.4454   -1.9253   -0.9349 H   0  0  0  0  0  0  0  0  0  0  0  0
   -4.0828   -3.6233   -1.3071 H   0  0  0  0  0  0  0  0  0  0  0  0
   -2.1126   -2.9833   -2.5883 H   0  0  0  0  0  0  0  0  0  0  0  0
   -3.2819   -1.7366   -3.0672 H   0  0  0  0  0  0  0  0  0  0  0  0
   -2.3310   -0.1366   -1.5168 H   0  0  0  0  0  0  0  0  0  0  0  0
   -0.8648   -1.0401   -1.9834 H   0  0  0  0  0  0  0  0  0  0  0  0
  1  2  1  0
  2  3  1  0
  3  4  1  0
  4  5  1  0
  5  6  1  0
  6  7  2  0
  7  8  1  0
  8  9  2  0
  8 10  1  0
 10 11  1  0
 11 12  1  0
 12 13  1  0
 13 14  1  0
 14 15  1  0
 15 16  1  0
 16 17  2  0
 17 18  1  0
 18 19  2  0
 18 20  1  0
 20 21  1  0
 21 22  1  0
 22 23  1  0
 23 24  1  0
 17  6  1  0
 16 10  1  0
 24 20  1  0
  1 25  1  0
  1 26  1  0
  1 27  1  0
  3 28  1  0
  3 29  1  0
  4 30  1  0
  4 31  1  0
  7 32  1  0
 11 33  1  0
 11 34  1  0
 12 35  1  0
 12 36  1  0
 14 37  1  0
 14 38  1  0
 15 39  1  0
 15 40  1  0
 21 41  1  0
 21 42  1  0
 22 43  1  0
 22 44  1  0
 23 45  1  0
 23 46  1  0
 24 47  1  0
 24 48  1  0
M  END
>  <Unnamed: 0>  (228) 
1455

>  <ID>  (228) 
TRAIN_1455

>  <Canonical_Smiles>  (228) 
COCCOC1=CC(=O)N2CCOCCC2=C1C(=O)N3CCCC3

>  <Inhibition>  (228) 
26.010231

>  <TDC_conf_true_inhibitor>  (228) 
0

>  <TDC_conf_non_inhibitor>  (228) 
1

>  <split>  (228) 
1

$$$$
228
     RDKit          3D

 23 24  0  0  0  0  0  0  0  0999 V2000
    4.4182   -1.2720    0.3411 O   0  0  0  0  0  0  0  0  0  0  0  0
    3.4560   -1.4940   -0.5757 C   0  0  0  0  0  0  0  0  0  0  0  0
    3.4839   -2.4913   -1.2758 O   0  0  0  0  0  0  0  0  0  0  0  0
    2.4410   -0.3879   -0.6039 C   0  0  0  0  0  0  0  0  0  0  0  0
    1.3138   -0.7347   -1.5678 C   0  0  0  0  0  0  0  0  0  0  0  0
    0.0618    0.5971   -1.6531 S   0  0  0  0  0  0  0  0  0  0  0  0
   -0.8891    0.2764   -0.2006 C   0  0  0  0  0  0  0  0  0  0  0  0
   -0.5605   -0.7031    0.6584 N   0  0  0  0  0  0  0  0  0  0  0  0
   -1.3459   -0.8699    1.7398 C   0  0  0  0  0  0  0  0  0  0  0  0
   -0.8668   -2.1297    2.7947 Cl  0  0  0  0  0  0  0  0  0  0  0  0
   -2.4356   -0.1898    2.1061 N   0  0  0  0  0  0  0  0  0  0  0  0
   -2.7392    0.7809    1.2301 C   0  0  0  0  0  0  0  0  0  0  0  0
   -3.7966    1.6428    1.3323 N   0  0  0  0  0  0  0  0  0  0  0  0
   -3.7140    2.4156    0.2717 C   0  0  0  0  0  0  0  0  0  0  0  0
   -2.6423    2.0861   -0.5115 N   0  0  0  0  0  0  0  0  0  0  0  0
   -2.0020    1.0365    0.0891 C   0  0  0  0  0  0  0  0  0  0  0  0
    5.0070   -2.0527    0.2695 H   0  0  0  0  0  0  0  0  0  0  0  0
    2.0633   -0.2533    0.4147 H   0  0  0  0  0  0  0  0  0  0  0  0
    2.9498    0.5288   -0.9227 H   0  0  0  0  0  0  0  0  0  0  0  0
    1.7209   -0.8493   -2.5793 H   0  0  0  0  0  0  0  0  0  0  0  0
    0.8395   -1.6902   -1.3174 H   0  0  0  0  0  0  0  0  0  0  0  0
   -4.3929    3.2206    0.0204 H   0  0  0  0  0  0  0  0  0  0  0  0
   -2.3702    2.5329   -1.3772 H   0  0  0  0  0  0  0  0  0  0  0  0
  1  2  1  0
  2  3  2  0
  2  4  1  0
  4  5  1  0
  5  6  1  0
  6  7  1  0
  7  8  2  0
  8  9  1  0
  9 10  1  0
  9 11  2  0
 11 12  1  0
 12 13  1  0
 13 14  2  0
 14 15  1  0
 15 16  1  0
 16  7  1  0
 16 12  2  0
  1 17  1  0
  4 18  1  0
  4 19  1  0
  5 20  1  0
  5 21  1  0
 14 22  1  0
 15 23  1  0
M  END
>  <Unnamed: 0>  (229) 
1462

>  <ID>  (229) 
TRAIN_1462

>  <Canonical_Smiles>  (229) 
OC(=O)CCSc1nc(Cl)nc2nc[nH]c12

>  <Inhibition>  (229) 
40.186298

>  <TDC_conf_true_inhibitor>  (229) 
0

>  <TDC_conf_non_inhibitor>  (229) 
1

>  <split>  (229) 
1

$$$$
229
     RDKit          3D

 43 46  0  0  0  0  0  0  0  0999 V2000
    0.6702   -3.7689   -1.0026 C   0  0  0  0  0  0  0  0  0  0  0  0
    0.3368   -2.3687   -0.5505 C   0  0  0  0  0  0  0  0  0  0  0  0
   -1.1047   -2.0103   -0.4339 C   0  0  0  0  0  0  0  0  0  0  0  0
   -1.4157   -0.7586   -0.0316 C   0  0  0  0  0  0  0  0  0  0  0  0
   -2.7533   -0.2986    0.0617 N   0  0  0  0  0  0  0  0  0  0  0  0
   -3.1427    0.9908   -0.1740 N   0  0  0  0  0  0  0  0  0  0  0  0
   -4.4711    1.0155   -0.1385 C   0  0  0  0  0  0  0  0  0  0  0  0
   -5.1958    2.2846   -0.3839 C   0  0  0  0  0  0  0  0  0  0  0  0
   -5.0004   -0.2403    0.1682 C   0  0  0  0  0  0  0  0  0  0  0  0
   -3.9078   -1.0629    0.3435 C   0  0  0  0  0  0  0  0  0  0  0  0
   -3.9158   -2.4697    0.8268 C   0  0  0  0  0  0  0  0  0  0  0  0
   -0.3445    0.1227    0.2506 N   0  0  0  0  0  0  0  0  0  0  0  0
   -0.3856    1.3901    0.7439 N   0  0  0  0  0  0  0  0  0  0  0  0
    0.8815    1.7958    0.8250 C   0  0  0  0  0  0  0  0  0  0  0  0
    1.1777    3.1664    1.3135 C   0  0  0  0  0  0  0  0  0  0  0  0
    1.7882    0.7858    0.4320 C   0  0  0  0  0  0  0  0  0  0  0  0
    3.2397    0.7931    0.3693 C   0  0  0  0  0  0  0  0  0  0  0  0
    3.9888   -0.2300    0.9667 C   0  0  0  0  0  0  0  0  0  0  0  0
    5.3855   -0.2105    0.9144 C   0  0  0  0  0  0  0  0  0  0  0  0
    6.0383    0.8333    0.2632 C   0  0  0  0  0  0  0  0  0  0  0  0
    7.7574    0.8588    0.1978 Cl  0  0  0  0  0  0  0  0  0  0  0  0
    5.3076    1.8562   -0.3376 C   0  0  0  0  0  0  0  0  0  0  0  0
    3.9106    1.8358   -0.2846 C   0  0  0  0  0  0  0  0  0  0  0  0
    0.9932   -0.2985    0.1055 C   0  0  0  0  0  0  0  0  0  0  0  0
    1.3214   -1.5626   -0.3022 N   0  0  0  0  0  0  0  0  0  0  0  0
   -0.2268   -4.3852   -1.1024 H   0  0  0  0  0  0  0  0  0  0  0  0
    1.3374   -4.2354   -0.2718 H   0  0  0  0  0  0  0  0  0  0  0  0
    1.1784   -3.7221   -1.9701 H   0  0  0  0  0  0  0  0  0  0  0  0
   -1.8261   -2.7503   -0.7456 H   0  0  0  0  0  0  0  0  0  0  0  0
   -4.9357    2.6931   -1.3658 H   0  0  0  0  0  0  0  0  0  0  0  0
   -4.9398    3.0266    0.3794 H   0  0  0  0  0  0  0  0  0  0  0  0
   -6.2795    2.1319   -0.3580 H   0  0  0  0  0  0  0  0  0  0  0  0
   -6.0400   -0.5071    0.2995 H   0  0  0  0  0  0  0  0  0  0  0  0
   -3.9078   -3.1697   -0.0138 H   0  0  0  0  0  0  0  0  0  0  0  0
   -3.0691   -2.6798    1.4869 H   0  0  0  0  0  0  0  0  0  0  0  0
   -4.8252   -2.6670    1.4056 H   0  0  0  0  0  0  0  0  0  0  0  0
    2.0481    3.1651    1.9774 H   0  0  0  0  0  0  0  0  0  0  0  0
    0.3340    3.5807    1.8757 H   0  0  0  0  0  0  0  0  0  0  0  0
    1.3840    3.8333    0.4706 H   0  0  0  0  0  0  0  0  0  0  0  0
    3.4882   -1.0516    1.4750 H   0  0  0  0  0  0  0  0  0  0  0  0
    5.9520   -1.0120    1.3802 H   0  0  0  0  0  0  0  0  0  0  0  0
    5.8154    2.6676   -0.8517 H   0  0  0  0  0  0  0  0  0  0  0  0
    3.3532    2.6322   -0.7723 H   0  0  0  0  0  0  0  0  0  0  0  0
  1  2  1  0
  2  3  1  0
  3  4  2  0
  4  5  1  0
  5  6  1  0
  6  7  2  0
  7  8  1  0
  7  9  1  0
  9 10  2  0
 10 11  1  0
  4 12  1  0
 12 13  1  0
 13 14  2  0
 14 15  1  0
 14 16  1  0
 16 17  1  0
 17 18  2  0
 18 19  1  0
 19 20  2  0
 20 21  1  0
 20 22  1  0
 22 23  2  0
 16 24  2  0
 24 25  1  0
 25  2  2  0
 10  5  1  0
 24 12  1  0
 23 17  1  0
  1 26  1  0
  1 27  1  0
  1 28  1  0
  3 29  1  0
  8 30  1  0
  8 31  1  0
  8 32  1  0
  9 33  1  0
 11 34  1  0
 11 35  1  0
 11 36  1  0
 15 37  1  0
 15 38  1  0
 15 39  1  0
 18 40  1  0
 19 41  1  0
 22 42  1  0
 23 43  1  0
M  END
>  <Unnamed: 0>  (230) 
1466

>  <ID>  (230) 
TRAIN_1466

>  <Canonical_Smiles>  (230) 
Cc1cc(n2nc(C)cc2C)n3nc(C)c(c4ccc(Cl)cc4)c3n1

>  <Inhibition>  (230) 
38.654113

>  <TDC_conf_true_inhibitor>  (230) 
1

>  <TDC_conf_non_inhibitor>  (230) 
0

>  <split>  (230) 
1

$$$$
230
     RDKit          3D

 39 40  0  0  0  0  0  0  0  0999 V2000
    3.6143    0.7178   -1.4008 C   0  0  0  0  0  0  0  0  0  0  0  0
    3.6317   -0.2109   -0.1798 C   0  0  1  0  0  0  0  0  0  0  0  0
    5.0755   -0.5387    0.2248 C   0  0  0  0  0  0  0  0  0  0  0  0
    5.7684   -1.2037   -0.8234 O   0  0  0  0  0  0  0  0  0  0  0  0
    2.8931    0.4058    1.0209 C   0  0  0  0  0  0  0  0  0  0  0  0
    1.4254    0.5355    0.7910 C   0  0  0  0  0  0  0  0  0  0  0  0
    0.7883    1.6078    0.3871 N   0  0  0  0  0  0  0  0  0  0  0  0
   -0.5599    1.2771    0.3056 C   0  0  0  0  0  0  0  0  0  0  0  0
   -1.5446    2.2640   -0.1535 C   0  0  0  0  0  0  0  0  0  0  0  0
   -1.2274    3.3835   -0.5594 O   0  0  0  0  0  0  0  0  0  0  0  0
   -2.8828    1.9579   -0.1676 N   0  0  0  0  0  0  0  0  0  0  0  0
   -3.5780    0.8911    0.5118 C   0  0  0  0  0  0  0  0  0  0  0  0
   -3.1717   -0.5362    0.0990 C   0  0  0  0  0  0  0  0  0  0  0  0
   -4.2986   -1.4964    0.5474 C   0  0  0  0  0  0  0  0  0  0  0  0
   -3.0218   -0.6813   -1.4277 C   0  0  0  0  0  0  0  0  0  0  0  0
   -1.8870   -0.9608    0.8327 C   0  0  0  0  0  0  0  0  0  0  0  0
   -0.7220   -0.0482    0.6862 C   0  0  0  0  0  0  0  0  0  0  0  0
    0.5453   -0.4911    0.9918 N   0  0  0  0  0  0  0  0  0  0  0  0
    4.1500    0.2703   -2.2445 H   0  0  0  0  0  0  0  0  0  0  0  0
    2.5914    0.9139   -1.7373 H   0  0  0  0  0  0  0  0  0  0  0  0
    4.0869    1.6792   -1.1727 H   0  0  0  0  0  0  0  0  0  0  0  0
    3.1376   -1.1458   -0.4765 H   0  0  0  0  0  0  0  0  0  0  0  0
    5.6319    0.3716    0.4722 H   0  0  0  0  0  0  0  0  0  0  0  0
    5.0954   -1.1930    1.1028 H   0  0  0  0  0  0  0  0  0  0  0  0
    5.2406   -1.9739   -1.0934 H   0  0  0  0  0  0  0  0  0  0  0  0
    3.0517   -0.2135    1.9132 H   0  0  0  0  0  0  0  0  0  0  0  0
    3.3095    1.3944    1.2519 H   0  0  0  0  0  0  0  0  0  0  0  0
   -3.4241    2.7668   -0.4467 H   0  0  0  0  0  0  0  0  0  0  0  0
   -3.4521    1.0419    1.5909 H   0  0  0  0  0  0  0  0  0  0  0  0
   -4.6397    1.0536    0.2892 H   0  0  0  0  0  0  0  0  0  0  0  0
   -4.4776   -1.4223    1.6262 H   0  0  0  0  0  0  0  0  0  0  0  0
   -5.2416   -1.2671    0.0379 H   0  0  0  0  0  0  0  0  0  0  0  0
   -4.0451   -2.5386    0.3220 H   0  0  0  0  0  0  0  0  0  0  0  0
   -3.9392   -0.3724   -1.9417 H   0  0  0  0  0  0  0  0  0  0  0  0
   -2.8227   -1.7232   -1.7044 H   0  0  0  0  0  0  0  0  0  0  0  0
   -2.1998   -0.0804   -1.8282 H   0  0  0  0  0  0  0  0  0  0  0  0
   -1.5967   -1.9663    0.4976 H   0  0  0  0  0  0  0  0  0  0  0  0
   -2.0947   -1.0503    1.9085 H   0  0  0  0  0  0  0  0  0  0  0  0
    0.7899   -1.4181    1.3110 H   0  0  0  0  0  0  0  0  0  0  0  0
  1  2  1  0
  2  3  1  0
  3  4  1  0
  2  5  1  0
  5  6  1  0
  6  7  2  0
  7  8  1  0
  8  9  1  0
  9 10  2  0
  9 11  1  0
 11 12  1  0
 12 13  1  0
 13 14  1  0
 13 15  1  0
 13 16  1  0
 16 17  1  0
 17 18  1  0
 18  6  1  0
 17  8  2  0
  1 19  1  0
  1 20  1  0
  1 21  1  0
  2 22  1  6
  3 23  1  0
  3 24  1  0
  4 25  1  0
  5 26  1  0
  5 27  1  0
 11 28  1  0
 12 29  1  0
 12 30  1  0
 14 31  1  0
 14 32  1  0
 14 33  1  0
 15 34  1  0
 15 35  1  0
 15 36  1  0
 16 37  1  0
 16 38  1  0
 18 39  1  0
M  END
>  <Unnamed: 0>  (231) 
1469

>  <ID>  (231) 
TRAIN_1469

>  <Canonical_Smiles>  (231) 
C[C@@H](CO)Cc1nc2C(=O)NCC(C)(C)Cc2[nH]1

>  <Inhibition>  (231) 
41.40495

>  <TDC_conf_true_inhibitor>  (231) 
0

>  <TDC_conf_non_inhibitor>  (231) 
1

>  <split>  (231) 
1

$$$$
231
     RDKit          3D

 53 57  0  0  0  0  0  0  0  0999 V2000
    3.8752    3.1584   -0.3412 O   0  0  0  0  0  0  0  0  0  0  0  0
    3.4389    2.0181   -0.4778 C   0  0  0  0  0  0  0  0  0  0  0  0
    2.1709    1.6571   -0.0235 N   0  0  0  0  0  0  0  0  0  0  0  0
    1.4154    0.5000   -0.5213 C   0  0  0  0  0  0  0  0  0  0  0  0
   -0.0956    0.7786   -0.6017 C   0  0  0  0  0  0  0  0  0  0  0  0
   -0.6529    1.2043    0.6899 N   0  0  0  0  0  0  0  0  0  0  0  0
    0.2494    2.0253    1.5183 C   0  0  0  0  0  0  0  0  0  0  0  0
    1.4108    2.6490    0.7377 C   0  0  0  0  0  0  0  0  0  0  0  0
   -1.8655    0.8402    1.2759 C   0  0  0  0  0  0  0  0  0  0  0  0
   -2.0444    1.1569    2.4612 O   0  0  0  0  0  0  0  0  0  0  0  0
   -2.9604    0.0118    0.5113 C   0  0  0  0  0  0  0  0  0  0  0  0
   -2.4482   -1.4355    0.2902 C   0  0  0  0  0  0  0  0  0  0  0  0
   -2.8095   -1.8232   -1.1465 C   0  0  0  0  0  0  0  0  0  0  0  0
   -3.7079   -0.7193   -1.6790 C   0  0  0  0  0  0  0  0  0  0  0  0
   -3.2866    0.5276   -0.9118 C   0  0  0  0  0  0  0  0  0  0  0  0
   -4.2929    0.0927    1.3186 C   0  0  0  0  0  0  0  0  0  0  0  0
   -4.9038    1.2431    1.8055 C   0  0  0  0  0  0  0  0  0  0  0  0
   -6.1373    0.9929    2.4699 C   0  0  0  0  0  0  0  0  0  0  0  0
   -6.4586   -0.3424    2.4621 C   0  0  0  0  0  0  0  0  0  0  0  0
   -5.2838   -1.2767    1.6549 S   0  0  0  0  0  0  0  0  0  0  0  0
    4.2313    1.0084   -1.1494 C   0  0  0  0  0  0  0  0  0  0  0  0
    4.8974    1.1432   -2.3833 C   0  0  0  0  0  0  0  0  0  0  0  0
    5.5392    0.0369   -2.7597 N   0  0  0  0  0  0  0  0  0  0  0  0
    5.3702   -0.8258   -1.7260 N   0  0  0  0  0  0  0  0  0  0  0  0
    5.8795   -2.1218   -1.6246 C   0  0  0  0  0  0  0  0  0  0  0  0
    5.6427   -2.8572   -0.5266 C   0  0  0  0  0  0  0  0  0  0  0  0
    4.8673   -2.2721    0.5527 C   0  0  0  0  0  0  0  0  0  0  0  0
    4.3667   -1.0252    0.4661 C   0  0  0  0  0  0  0  0  0  0  0  0
    4.5871   -0.2550   -0.7155 C   0  0  0  0  0  0  0  0  0  0  0  0
    1.7814    0.2021   -1.5084 H   0  0  0  0  0  0  0  0  0  0  0  0
    1.5894   -0.3229    0.1800 H   0  0  0  0  0  0  0  0  0  0  0  0
   -0.5958   -0.1058   -0.9847 H   0  0  0  0  0  0  0  0  0  0  0  0
   -0.2740    1.5998   -1.3062 H   0  0  0  0  0  0  0  0  0  0  0  0
   -0.3282    2.8164    2.0102 H   0  0  0  0  0  0  0  0  0  0  0  0
    0.6454    1.3652    2.3006 H   0  0  0  0  0  0  0  0  0  0  0  0
    1.0283    3.3825    0.0169 H   0  0  0  0  0  0  0  0  0  0  0  0
    2.0833    3.1789    1.4217 H   0  0  0  0  0  0  0  0  0  0  0  0
   -2.8536   -2.1642    0.9975 H   0  0  0  0  0  0  0  0  0  0  0  0
   -1.3641   -1.5218    0.4260 H   0  0  0  0  0  0  0  0  0  0  0  0
   -1.8996   -1.8927   -1.7536 H   0  0  0  0  0  0  0  0  0  0  0  0
   -3.3031   -2.7992   -1.1920 H   0  0  0  0  0  0  0  0  0  0  0  0
   -4.7586   -0.9558   -1.4770 H   0  0  0  0  0  0  0  0  0  0  0  0
   -3.6032   -0.5910   -2.7607 H   0  0  0  0  0  0  0  0  0  0  0  0
   -4.0853    1.2782   -0.9324 H   0  0  0  0  0  0  0  0  0  0  0  0
   -2.4392    0.9936   -1.4131 H   0  0  0  0  0  0  0  0  0  0  0  0
   -4.4680    2.2305    1.7035 H   0  0  0  0  0  0  0  0  0  0  0  0
   -6.7534    1.7546    2.9313 H   0  0  0  0  0  0  0  0  0  0  0  0
   -7.3310   -0.8155    2.8910 H   0  0  0  0  0  0  0  0  0  0  0  0
    4.9197    2.0087   -3.0344 H   0  0  0  0  0  0  0  0  0  0  0  0
    6.4603   -2.4709   -2.4676 H   0  0  0  0  0  0  0  0  0  0  0  0
    6.0280   -3.8650   -0.4171 H   0  0  0  0  0  0  0  0  0  0  0  0
    4.7169   -2.8691    1.4479 H   0  0  0  0  0  0  0  0  0  0  0  0
    3.8102   -0.5964    1.2943 H   0  0  0  0  0  0  0  0  0  0  0  0
  1  2  2  0
  2  3  1  0
  3  4  1  0
  4  5  1  0
  5  6  1  0
  6  7  1  0
  7  8  1  0
  6  9  1  0
  9 10  2  0
  9 11  1  0
 11 12  1  0
 12 13  1  0
 13 14  1  0
 14 15  1  0
 11 16  1  0
 16 17  2  0
 17 18  1  0
 18 19  2  0
 19 20  1  0
  2 21  1  0
 21 22  1  0
 22 23  2  0
 23 24  1  0
 24 25  1  0
 25 26  2  0
 26 27  1  0
 27 28  2  0
 28 29  1  0
  8  3  1  0
 15 11  1  0
 20 16  1  0
 29 21  2  0
 29 24  1  0
  4 30  1  0
  4 31  1  0
  5 32  1  0
  5 33  1  0
  7 34  1  0
  7 35  1  0
  8 36  1  0
  8 37  1  0
 12 38  1  0
 12 39  1  0
 13 40  1  0
 13 41  1  0
 14 42  1  0
 14 43  1  0
 15 44  1  0
 15 45  1  0
 17 46  1  0
 18 47  1  0
 19 48  1  0
 22 49  1  0
 25 50  1  0
 26 51  1  0
 27 52  1  0
 28 53  1  0
M  END
>  <Unnamed: 0>  (232) 
1471

>  <ID>  (232) 
TRAIN_1471

>  <Canonical_Smiles>  (232) 
O=C(N1CCN(CC1)C(=O)C2(CCCC2)c3cccs3)c4cnn5ccccc45

>  <Inhibition>  (232) 
77.840846

>  <TDC_conf_true_inhibitor>  (232) 
1

>  <TDC_conf_non_inhibitor>  (232) 
0

>  <split>  (232) 
1

$$$$
232
     RDKit          3D

 51 54  0  0  0  0  0  0  0  0999 V2000
    7.1071   -0.6445   -0.3608 C   0  0  0  0  0  0  0  0  0  0  0  0
    5.7856   -0.0223   -0.0022 C   0  0  0  0  0  0  0  0  0  0  0  0
    5.6637    1.3734    0.0078 C   0  0  0  0  0  0  0  0  0  0  0  0
    4.4506    1.9792    0.3376 C   0  0  0  0  0  0  0  0  0  0  0  0
    3.3346    1.2082    0.6574 C   0  0  0  0  0  0  0  0  0  0  0  0
    2.2122    1.9300    0.9528 O   0  0  0  0  0  0  0  0  0  0  0  0
    0.9532    1.2541    0.9889 C   0  0  0  0  0  0  0  0  0  0  0  0
    0.4035    1.0458   -0.4196 C   0  0  0  0  0  0  0  0  0  0  0  0
   -0.8872    0.3724   -0.4106 N   0  0  0  0  0  0  0  0  0  0  0  0
   -2.1194    0.9838   -0.2793 C   0  0  0  0  0  0  0  0  0  0  0  0
   -2.2974    2.4590   -0.1131 C   0  0  0  0  0  0  0  0  0  0  0  0
   -3.0899   -0.0132   -0.3392 C   0  0  0  0  0  0  0  0  0  0  0  0
   -4.5351    0.1516   -0.2691 C   0  0  0  0  0  0  0  0  0  0  0  0
   -5.0459    1.3316   -0.1652 N   0  0  0  0  0  0  0  0  0  0  0  0
   -6.4033    1.4275   -0.1086 N   0  0  0  0  0  0  0  0  0  0  0  0
   -7.0724    2.6187    0.0117 C   0  0  0  0  0  0  0  0  0  0  0  0
   -8.3703    2.4232    0.0434 N   0  0  0  0  0  0  0  0  0  0  0  0
   -8.5828    1.0713   -0.0577 N   0  0  0  0  0  0  0  0  0  0  0  0
   -7.4062    0.4914   -0.1476 C   0  0  0  0  0  0  0  0  0  0  0  0
   -2.4072   -1.2647   -0.4847 C   0  0  0  0  0  0  0  0  0  0  0  0
   -2.8367   -2.6078   -0.5873 C   0  0  0  0  0  0  0  0  0  0  0  0
   -1.8966   -3.6332   -0.7298 C   0  0  0  0  0  0  0  0  0  0  0  0
   -0.5395   -3.3416   -0.7752 C   0  0  0  0  0  0  0  0  0  0  0  0
   -0.0874   -2.0234   -0.6778 C   0  0  0  0  0  0  0  0  0  0  0  0
   -1.0383   -0.9974   -0.5304 C   0  0  0  0  0  0  0  0  0  0  0  0
    3.4507   -0.1818    0.6653 C   0  0  0  0  0  0  0  0  0  0  0  0
    4.6665   -0.8095    0.3323 C   0  0  0  0  0  0  0  0  0  0  0  0
    4.7472   -2.3125    0.3529 C   0  0  0  0  0  0  0  0  0  0  0  0
    7.8605    0.1163   -0.5917 H   0  0  0  0  0  0  0  0  0  0  0  0
    7.4862   -1.2407    0.4752 H   0  0  0  0  0  0  0  0  0  0  0  0
    7.0004   -1.2806   -1.2451 H   0  0  0  0  0  0  0  0  0  0  0  0
    6.5149    2.0039   -0.2401 H   0  0  0  0  0  0  0  0  0  0  0  0
    4.3766    3.0640    0.3410 H   0  0  0  0  0  0  0  0  0  0  0  0
    0.2737    1.9113    1.5448 H   0  0  0  0  0  0  0  0  0  0  0  0
    0.9933    0.3308    1.5773 H   0  0  0  0  0  0  0  0  0  0  0  0
    1.0934    0.4607   -1.0365 H   0  0  0  0  0  0  0  0  0  0  0  0
    0.2982    1.9992   -0.9488 H   0  0  0  0  0  0  0  0  0  0  0  0
   -1.3592    2.9949    0.0446 H   0  0  0  0  0  0  0  0  0  0  0  0
   -2.9262    2.6701    0.7581 H   0  0  0  0  0  0  0  0  0  0  0  0
   -2.7764    2.8822   -1.0018 H   0  0  0  0  0  0  0  0  0  0  0  0
   -5.1231   -0.7792   -0.3150 H   0  0  0  0  0  0  0  0  0  0  0  0
   -6.5606    3.5667    0.0696 H   0  0  0  0  0  0  0  0  0  0  0  0
   -7.2494   -0.5709   -0.2400 H   0  0  0  0  0  0  0  0  0  0  0  0
   -3.8927   -2.8592   -0.5578 H   0  0  0  0  0  0  0  0  0  0  0  0
   -2.2316   -4.6646   -0.8091 H   0  0  0  0  0  0  0  0  0  0  0  0
    0.1811   -4.1479   -0.8920 H   0  0  0  0  0  0  0  0  0  0  0  0
    0.9762   -1.8146   -0.7252 H   0  0  0  0  0  0  0  0  0  0  0  0
    2.6126   -0.8115    0.9420 H   0  0  0  0  0  0  0  0  0  0  0  0
    5.4753   -2.6435    1.1003 H   0  0  0  0  0  0  0  0  0  0  0  0
    5.0352   -2.6919   -0.6325 H   0  0  0  0  0  0  0  0  0  0  0  0
    3.7826   -2.7646    0.6077 H   0  0  0  0  0  0  0  0  0  0  0  0
  1  2  1  0
  2  3  2  0
  3  4  1  0
  4  5  2  0
  5  6  1  0
  6  7  1  0
  7  8  1  0
  8  9  1  0
  9 10  1  0
 10 11  1  0
 10 12  2  0
 12 13  1  0
 13 14  2  0
 14 15  1  0
 15 16  1  0
 16 17  2  0
 17 18  1  0
 18 19  2  0
 12 20  1  0
 20 21  2  0
 21 22  1  0
 22 23  2  0
 23 24  1  0
 24 25  2  0
  5 26  1  0
 26 27  2  0
 27 28  1  0
 27  2  1  0
 25  9  1  0
 19 15  1  0
 25 20  1  0
  1 29  1  0
  1 30  1  0
  1 31  1  0
  3 32  1  0
  4 33  1  0
  7 34  1  0
  7 35  1  0
  8 36  1  0
  8 37  1  0
 11 38  1  0
 11 39  1  0
 11 40  1  0
 13 41  1  0
 16 42  1  0
 19 43  1  0
 21 44  1  0
 22 45  1  0
 23 46  1  0
 24 47  1  0
 26 48  1  0
 28 49  1  0
 28 50  1  0
 28 51  1  0
M  END
>  <Unnamed: 0>  (233) 
1475

>  <ID>  (233) 
TRAIN_1475

>  <Canonical_Smiles>  (233) 
Cc1ccc(OCCn2c(C)c(\C=N\n3cnnc3)c4ccccc24)cc1C

>  <Inhibition>  (233) 
71.309405

>  <TDC_conf_true_inhibitor>  (233) 
1

>  <TDC_conf_non_inhibitor>  (233) 
0

>  <split>  (233) 
1

$$$$
233
     RDKit          3D

 47 50  0  0  0  0  0  0  0  0999 V2000
    5.3426    1.5212    2.9519 C   0  0  0  0  0  0  0  0  0  0  0  0
    4.5339    0.6935    2.0262 C   0  0  0  0  0  0  0  0  0  0  0  0
    4.7168   -0.6683    1.7027 C   0  0  0  0  0  0  0  0  0  0  0  0
    3.7145   -0.9733    0.8059 C   0  0  0  0  0  0  0  0  0  0  0  0
    3.3963   -2.2485    0.1198 C   0  0  0  0  0  0  0  0  0  0  0  0
    3.0000    0.1866    0.6484 N   0  0  0  0  0  0  0  0  0  0  0  0
    1.8246    0.4215   -0.1820 C   0  0  0  0  0  0  0  0  0  0  0  0
    2.0495    1.5870   -1.1528 C   0  0  0  0  0  0  0  0  0  0  0  0
    2.0383    2.8405   -0.4441 O   0  0  0  0  0  0  0  0  0  0  0  0
    0.9816    1.6305   -2.2500 C   0  0  0  0  0  0  0  0  0  0  0  0
   -0.3307    1.5549   -1.6871 O   0  0  0  0  0  0  0  0  0  0  0  0
   -0.8166    0.2499   -1.8098 N   0  0  0  0  0  0  0  0  0  0  0  0
   -1.9428    0.0877   -1.1899 C   0  0  0  0  0  0  0  0  0  0  0  0
   -2.7678    1.0137   -0.3672 C   0  0  0  0  0  0  0  0  0  0  0  0
   -2.5725    2.3346   -0.0005 C   0  0  0  0  0  0  0  0  0  0  0  0
   -3.5389    2.9403    0.8069 C   0  0  0  0  0  0  0  0  0  0  0  0
   -4.6716    2.2267    1.2315 C   0  0  0  0  0  0  0  0  0  0  0  0
   -4.8578    0.8915    0.8598 C   0  0  0  0  0  0  0  0  0  0  0  0
   -3.8991    0.2882    0.0594 C   0  0  0  0  0  0  0  0  0  0  0  0
   -3.8314   -1.0618   -0.4551 C   0  0  0  0  0  0  0  0  0  0  0  0
   -4.6924   -2.1375   -0.3130 C   0  0  0  0  0  0  0  0  0  0  0  0
   -4.3558   -3.3480   -0.9344 C   0  0  0  0  0  0  0  0  0  0  0  0
   -3.1738   -3.4730   -1.6879 C   0  0  0  0  0  0  0  0  0  0  0  0
   -2.3065   -2.3898   -1.8329 C   0  0  0  0  0  0  0  0  0  0  0  0
   -2.6589   -1.2072   -1.2082 C   0  0  0  0  0  0  0  0  0  0  0  0
    3.4894    1.2165    1.3759 N   0  0  0  0  0  0  0  0  0  0  0  0
    4.9400    2.5353    3.0424 H   0  0  0  0  0  0  0  0  0  0  0  0
    6.3738    1.5963    2.5923 H   0  0  0  0  0  0  0  0  0  0  0  0
    5.3567    1.0727    3.9505 H   0  0  0  0  0  0  0  0  0  0  0  0
    5.4775   -1.3389    2.0776 H   0  0  0  0  0  0  0  0  0  0  0  0
    3.3869   -2.1138   -0.9669 H   0  0  0  0  0  0  0  0  0  0  0  0
    2.4183   -2.6255    0.4360 H   0  0  0  0  0  0  0  0  0  0  0  0
    4.1440   -3.0138    0.3531 H   0  0  0  0  0  0  0  0  0  0  0  0
    1.0044    0.6269    0.5158 H   0  0  0  0  0  0  0  0  0  0  0  0
    1.6115   -0.5028   -0.7260 H   0  0  0  0  0  0  0  0  0  0  0  0
    3.0333    1.5096   -1.6308 H   0  0  0  0  0  0  0  0  0  0  0  0
    2.6159    2.7036    0.3417 H   0  0  0  0  0  0  0  0  0  0  0  0
    1.1384    0.8228   -2.9766 H   0  0  0  0  0  0  0  0  0  0  0  0
    1.0395    2.5812   -2.7906 H   0  0  0  0  0  0  0  0  0  0  0  0
   -1.7005    2.8965   -0.3144 H   0  0  0  0  0  0  0  0  0  0  0  0
   -3.4098    3.9770    1.1112 H   0  0  0  0  0  0  0  0  0  0  0  0
   -5.4087    2.7191    1.8620 H   0  0  0  0  0  0  0  0  0  0  0  0
   -5.7347    0.3496    1.1984 H   0  0  0  0  0  0  0  0  0  0  0  0
   -5.6083   -2.0568    0.2630 H   0  0  0  0  0  0  0  0  0  0  0  0
   -5.0192   -4.2049   -0.8362 H   0  0  0  0  0  0  0  0  0  0  0  0
   -2.9374   -4.4219   -2.1642 H   0  0  0  0  0  0  0  0  0  0  0  0
   -1.3925   -2.4671   -2.4117 H   0  0  0  0  0  0  0  0  0  0  0  0
  1  2  1  0
  2  3  1  0
  3  4  2  0
  4  5  1  0
  4  6  1  0
  6  7  1  0
  7  8  1  0
  8  9  1  0
  8 10  1  0
 10 11  1  0
 11 12  1  0
 12 13  2  3
 13 14  1  0
 14 15  2  0
 15 16  1  0
 16 17  2  0
 17 18  1  0
 18 19  2  0
 19 20  1  0
 20 21  2  0
 21 22  1  0
 22 23  2  0
 23 24  1  0
 24 25  2  0
  6 26  1  0
 26  2  2  0
 25 13  1  0
 19 14  1  0
 25 20  1  0
  1 27  1  0
  1 28  1  0
  1 29  1  0
  3 30  1  0
  5 31  1  0
  5 32  1  0
  5 33  1  0
  7 34  1  0
  7 35  1  0
  8 36  1  0
  9 37  1  0
 10 38  1  0
 10 39  1  0
 15 40  1  0
 16 41  1  0
 17 42  1  0
 18 43  1  0
 21 44  1  0
 22 45  1  0
 23 46  1  0
 24 47  1  0
M  END
>  <Unnamed: 0>  (234) 
1476

>  <ID>  (234) 
TRAIN_1476

>  <Canonical_Smiles>  (234) 
Cc1cc(C)n(CC(O)CON=C2c3ccccc3c4ccccc24)n1

>  <Inhibition>  (234) 
73.597135

>  <TDC_conf_true_inhibitor>  (234) 
1

>  <TDC_conf_non_inhibitor>  (234) 
0

>  <split>  (234) 
1

$$$$
234
     RDKit          3D

 33 35  0  0  0  0  0  0  0  0999 V2000
    0.5780    1.1487    1.4188 O   0  0  0  0  0  0  0  0  0  0  0  0
    0.8166    0.2957    0.5725 C   0  0  0  0  0  0  0  0  0  0  0  0
   -0.1107   -0.1736   -0.3305 N   0  0  0  0  0  0  0  0  0  0  0  0
   -1.5036    0.2628   -0.2909 C   0  0  2  0  0  0  0  0  0  0  0  0
   -2.2656   -0.4508    0.8386 C   0  0  0  0  0  0  0  0  0  0  0  0
   -3.7548   -0.6193    0.5318 C   0  0  0  0  0  0  0  0  0  0  0  0
   -4.2724    0.4836   -0.3848 C   0  0  0  0  0  0  0  0  0  0  0  0
   -3.5928    0.5220   -1.6804 N   0  0  0  0  0  0  0  0  0  0  0  0
   -2.2100    0.0379   -1.6422 C   0  0  0  0  0  0  0  0  0  0  0  0
    2.1821   -0.2905    0.4245 C   0  0  0  0  0  0  0  0  0  0  0  0
    2.2997   -1.6257    0.3752 C   0  0  0  0  0  0  0  0  0  0  0  0
    3.6559   -2.2298    0.2551 C   0  0  0  0  0  0  0  0  0  0  0  0
    3.7285   -3.4505    0.1670 O   0  0  0  0  0  0  0  0  0  0  0  0
    4.7542   -1.4007    0.2385 N   0  0  0  0  0  0  0  0  0  0  0  0
    4.5298   -0.1359    0.3148 C   0  0  0  0  0  0  0  0  0  0  0  0
    5.8404    1.0613    0.3016 S   0  0  0  0  0  0  0  0  0  0  0  0
    4.6735    2.3622    0.4278 C   0  0  0  0  0  0  0  0  0  0  0  0
    3.4191    1.8880    0.4692 C   0  0  0  0  0  0  0  0  0  0  0  0
    3.3088    0.5085    0.4083 N   0  0  0  0  0  0  0  0  0  0  0  0
    0.1526   -0.8709   -1.0146 H   0  0  0  0  0  0  0  0  0  0  0  0
   -1.4990    1.3410   -0.0804 H   0  0  0  0  0  0  0  0  0  0  0  0
   -1.8365   -1.4402    1.0423 H   0  0  0  0  0  0  0  0  0  0  0  0
   -2.1435    0.1248    1.7650 H   0  0  0  0  0  0  0  0  0  0  0  0
   -4.3239   -0.6324    1.4684 H   0  0  0  0  0  0  0  0  0  0  0  0
   -3.9197   -1.5943    0.0552 H   0  0  0  0  0  0  0  0  0  0  0  0
   -4.1481    1.4563    0.1062 H   0  0  0  0  0  0  0  0  0  0  0  0
   -5.3481    0.3561   -0.5497 H   0  0  0  0  0  0  0  0  0  0  0  0
   -4.1201   -0.0128   -2.3706 H   0  0  0  0  0  0  0  0  0  0  0  0
   -1.6477    0.5325   -2.4427 H   0  0  0  0  0  0  0  0  0  0  0  0
   -2.1994   -1.0343   -1.8798 H   0  0  0  0  0  0  0  0  0  0  0  0
    1.4712   -2.3187    0.4331 H   0  0  0  0  0  0  0  0  0  0  0  0
    4.9595    3.4041    0.4700 H   0  0  0  0  0  0  0  0  0  0  0  0
    2.5259    2.4948    0.5535 H   0  0  0  0  0  0  0  0  0  0  0  0
  1  2  2  0
  2  3  1  0
  3  4  1  0
  4  5  1  0
  5  6  1  0
  6  7  1  0
  7  8  1  0
  8  9  1  0
  2 10  1  0
 10 11  2  0
 11 12  1  0
 12 13  2  0
 12 14  1  0
 14 15  2  0
 15 16  1  0
 16 17  1  0
 17 18  2  0
 18 19  1  0
  9  4  1  0
 19 10  1  0
 19 15  1  0
  3 20  1  0
  4 21  1  1
  5 22  1  0
  5 23  1  0
  6 24  1  0
  6 25  1  0
  7 26  1  0
  7 27  1  0
  8 28  1  0
  9 29  1  0
  9 30  1  0
 11 31  1  0
 17 32  1  0
 18 33  1  0
M  END
>  <Unnamed: 0>  (235) 
1480

>  <ID>  (235) 
TRAIN_1480

>  <Canonical_Smiles>  (235) 
O=C(N[C@@H]1CCCNC1)C2=CC(=O)N=C3SC=CN23

>  <Inhibition>  (235) 
46.48283

>  <TDC_conf_true_inhibitor>  (235) 
0

>  <TDC_conf_non_inhibitor>  (235) 
1

>  <split>  (235) 
1

$$$$
235
     RDKit          3D

 33 36  0  0  0  0  0  0  0  0999 V2000
   -5.9239    0.6482   -0.7245 C   0  0  0  0  0  0  0  0  0  0  0  0
   -4.6796    0.2967   -0.0581 N   0  0  0  0  0  0  0  0  0  0  0  0
   -3.4839    0.5386   -0.7213 C   0  0  0  0  0  0  0  0  0  0  0  0
   -2.2803    0.2474   -0.1864 C   0  0  0  0  0  0  0  0  0  0  0  0
   -2.2746   -0.3455    1.1464 C   0  0  0  0  0  0  0  0  0  0  0  0
   -3.4078   -0.5931    1.8160 C   0  0  0  0  0  0  0  0  0  0  0  0
   -4.7257   -0.2668    1.2138 C   0  0  0  0  0  0  0  0  0  0  0  0
   -5.7484   -0.5040    1.8491 O   0  0  0  0  0  0  0  0  0  0  0  0
   -1.0474    0.5051   -0.8888 C   0  0  0  0  0  0  0  0  0  0  0  0
   -0.9276    1.0435   -2.1115 N   0  0  0  0  0  0  0  0  0  0  0  0
    0.4493    1.0762   -2.3224 O   0  0  0  0  0  0  0  0  0  0  0  0
    1.0393    0.5521   -1.2027 C   0  0  0  0  0  0  0  0  0  0  0  0
    0.1532    0.1881   -0.2959 N   0  0  0  0  0  0  0  0  0  0  0  0
    2.5959    0.4091   -1.0365 C   0  0  0  0  0  0  0  0  0  0  0  0
    3.4552    0.7960   -1.9924 N   0  0  0  0  0  0  0  0  0  0  0  0
    4.6600    0.5107   -1.4709 N   0  0  0  0  0  0  0  0  0  0  0  0
    4.6162   -0.0435   -0.2202 C   0  0  0  0  0  0  0  0  0  0  0  0
    5.6324   -0.4712    0.6401 C   0  0  0  0  0  0  0  0  0  0  0  0
    5.2414   -1.0022    1.8733 C   0  0  0  0  0  0  0  0  0  0  0  0
    3.8947   -1.0981    2.2233 C   0  0  0  0  0  0  0  0  0  0  0  0
    2.8934   -0.6636    1.3460 C   0  0  0  0  0  0  0  0  0  0  0  0
    3.2642   -0.1253    0.0985 C   0  0  0  0  0  0  0  0  0  0  0  0
   -6.7962    0.4131   -0.1089 H   0  0  0  0  0  0  0  0  0  0  0  0
   -5.9960    0.0890   -1.6629 H   0  0  0  0  0  0  0  0  0  0  0  0
   -5.9236    1.7221   -0.9367 H   0  0  0  0  0  0  0  0  0  0  0  0
   -3.5719    0.9825   -1.7107 H   0  0  0  0  0  0  0  0  0  0  0  0
   -1.3180   -0.5893    1.5993 H   0  0  0  0  0  0  0  0  0  0  0  0
   -3.4216   -1.0322    2.8050 H   0  0  0  0  0  0  0  0  0  0  0  0
    5.4843    0.7197   -2.0230 H   0  0  0  0  0  0  0  0  0  0  0  0
    6.6812   -0.3980    0.3709 H   0  0  0  0  0  0  0  0  0  0  0  0
    6.0013   -1.3467    2.5721 H   0  0  0  0  0  0  0  0  0  0  0  0
    3.6169   -1.5152    3.1888 H   0  0  0  0  0  0  0  0  0  0  0  0
    1.8475   -0.7432    1.6293 H   0  0  0  0  0  0  0  0  0  0  0  0
  1  2  1  0
  2  3  1  0
  3  4  2  0
  4  5  1  0
  5  6  2  0
  6  7  1  0
  7  8  2  0
  4  9  1  0
  9 10  2  0
 10 11  1  0
 11 12  1  0
 12 13  2  0
 12 14  1  0
 14 15  2  0
 15 16  1  0
 16 17  1  0
 17 18  2  0
 18 19  1  0
 19 20  2  0
 20 21  1  0
 21 22  2  0
  7  2  1  0
 13  9  1  0
 22 14  1  0
 22 17  1  0
  1 23  1  0
  1 24  1  0
  1 25  1  0
  3 26  1  0
  5 27  1  0
  6 28  1  0
 16 29  1  0
 18 30  1  0
 19 31  1  0
 20 32  1  0
 21 33  1  0
M  END
>  <Unnamed: 0>  (236) 
1486

>  <ID>  (236) 
TRAIN_1486

>  <Canonical_Smiles>  (236) 
CN1C=C(C=CC1=O)c2noc(n2)c3n[nH]c4ccccc34

>  <Inhibition>  (236) 
47.726412

>  <TDC_conf_true_inhibitor>  (236) 
0

>  <TDC_conf_non_inhibitor>  (236) 
1

>  <split>  (236) 
1

$$$$
236
     RDKit          3D

 58 61  0  0  0  0  0  0  0  0999 V2000
   -4.7729   -2.3830    0.8167 C   0  0  0  0  0  0  0  0  0  0  0  0
   -4.6753   -1.1206   -0.0346 C   0  0  0  0  0  0  0  0  0  0  0  0
   -3.5906   -0.1420    0.4672 C   0  0  0  0  0  0  0  0  0  0  0  0
   -2.2174   -0.6858    0.2674 N   0  0  0  0  0  0  0  0  0  0  0  0
   -2.0928   -1.4547   -1.0044 C   0  0  0  0  0  0  0  0  0  0  0  0
   -3.2477   -1.1532   -1.9787 C   0  0  0  0  0  0  0  0  0  0  0  0
   -3.0903   -1.9410   -3.2726 C   0  0  0  0  0  0  0  0  0  0  0  0
   -4.5233   -1.5052   -1.4143 O   0  0  0  0  0  0  0  0  0  0  0  0
   -1.2795    0.3576    0.3262 C   0  0  0  0  0  0  0  0  0  0  0  0
   -1.2647    1.2639   -0.6784 N   0  0  0  0  0  0  0  0  0  0  0  0
   -0.3850    2.2797   -0.6116 C   0  0  0  0  0  0  0  0  0  0  0  0
   -0.3360    3.2179   -1.6355 C   0  0  0  0  0  0  0  0  0  0  0  0
    0.5667    4.2817   -1.6028 C   0  0  0  0  0  0  0  0  0  0  0  0
    1.4346    4.4100   -0.5262 C   0  0  0  0  0  0  0  0  0  0  0  0
    1.3909    3.4736    0.5072 C   0  0  0  0  0  0  0  0  0  0  0  0
    0.4945    2.4122    0.4811 C   0  0  0  0  0  0  0  0  0  0  0  0
    0.4850    1.5191    1.4861 N   0  0  0  0  0  0  0  0  0  0  0  0
   -0.3863    0.4688    1.3990 C   0  0  0  0  0  0  0  0  0  0  0  0
   -0.2385   -0.5547    2.4857 C   0  0  0  0  0  0  0  0  0  0  0  0
   -1.4569   -1.1216    3.0500 C   0  0  0  0  0  0  0  0  0  0  0  0
   -2.4241   -1.5097    3.5652 N   0  0  0  0  0  0  0  0  0  0  0  0
    0.7582   -1.9105    1.9113 S   0  0  0  0  0  6  0  0  0  0  0  0
    1.2044   -2.6719    3.0687 O   0  0  0  0  0  0  0  0  0  0  0  0
    0.1381   -2.6075    0.7987 O   0  0  0  0  0  0  0  0  0  0  0  0
    2.2359   -1.1420    1.2583 C   0  0  0  0  0  0  0  0  0  0  0  0
    3.2641   -0.7837    2.1283 C   0  0  0  0  0  0  0  0  0  0  0  0
    4.4015   -0.1597    1.6178 C   0  0  0  0  0  0  0  0  0  0  0  0
    4.5246    0.1034    0.2429 C   0  0  0  0  0  0  0  0  0  0  0  0
    5.7662    0.7849   -0.2660 C   0  0  0  0  0  0  0  0  0  0  0  0
    3.4908   -0.2856   -0.6348 C   0  0  0  0  0  0  0  0  0  0  0  0
    3.5802   -0.0299   -2.1149 C   0  0  0  0  0  0  0  0  0  0  0  0
    2.3524   -0.9213   -0.1173 C   0  0  0  0  0  0  0  0  0  0  0  0
   -5.5828   -3.0240    0.4515 H   0  0  0  0  0  0  0  0  0  0  0  0
   -4.9728   -2.1373    1.8642 H   0  0  0  0  0  0  0  0  0  0  0  0
   -3.8581   -2.9811    0.7675 H   0  0  0  0  0  0  0  0  0  0  0  0
   -5.6436   -0.6099    0.0303 H   0  0  0  0  0  0  0  0  0  0  0  0
   -3.7499    0.0798    1.5285 H   0  0  0  0  0  0  0  0  0  0  0  0
   -3.7195    0.8024   -0.0800 H   0  0  0  0  0  0  0  0  0  0  0  0
   -1.1220   -1.2908   -1.4908 H   0  0  0  0  0  0  0  0  0  0  0  0
   -2.1280   -2.5169   -0.7349 H   0  0  0  0  0  0  0  0  0  0  0  0
   -3.2733   -0.0853   -2.2278 H   0  0  0  0  0  0  0  0  0  0  0  0
   -2.1416   -1.7098   -3.7657 H   0  0  0  0  0  0  0  0  0  0  0  0
   -3.1357   -3.0189   -3.0832 H   0  0  0  0  0  0  0  0  0  0  0  0
   -3.9076   -1.7080   -3.9633 H   0  0  0  0  0  0  0  0  0  0  0  0
   -1.0169    3.1164   -2.4775 H   0  0  0  0  0  0  0  0  0  0  0  0
    0.5881    5.0038   -2.4154 H   0  0  0  0  0  0  0  0  0  0  0  0
    2.1444    5.2327   -0.4875 H   0  0  0  0  0  0  0  0  0  0  0  0
    2.0736    3.5691    1.3481 H   0  0  0  0  0  0  0  0  0  0  0  0
    0.3309   -0.1057    3.3106 H   0  0  0  0  0  0  0  0  0  0  0  0
    3.1953   -0.9834    3.1946 H   0  0  0  0  0  0  0  0  0  0  0  0
    5.1994    0.1207    2.3030 H   0  0  0  0  0  0  0  0  0  0  0  0
    6.4536    1.0307    0.5506 H   0  0  0  0  0  0  0  0  0  0  0  0
    6.3003    0.1304   -0.9615 H   0  0  0  0  0  0  0  0  0  0  0  0
    5.5066    1.7216   -0.7691 H   0  0  0  0  0  0  0  0  0  0  0  0
    4.4550   -0.5347   -2.5364 H   0  0  0  0  0  0  0  0  0  0  0  0
    3.6471    1.0448   -2.3112 H   0  0  0  0  0  0  0  0  0  0  0  0
    2.6967   -0.4059   -2.6427 H   0  0  0  0  0  0  0  0  0  0  0  0
    1.5541   -1.2301   -0.7893 H   0  0  0  0  0  0  0  0  0  0  0  0
  1  2  1  0
  2  3  1  0
  3  4  1  0
  4  5  1  0
  5  6  1  0
  6  7  1  0
  6  8  1  0
  4  9  1  0
  9 10  2  0
 10 11  1  0
 11 12  2  0
 12 13  1  0
 13 14  2  0
 14 15  1  0
 15 16  2  0
 16 17  1  0
 17 18  2  0
 18 19  1  0
 19 20  1  0
 20 21  3  0
 19 22  1  0
 22 23  2  0
 22 24  2  0
 22 25  1  0
 25 26  2  0
 26 27  1  0
 27 28  2  0
 28 29  1  0
 28 30  1  0
 30 31  1  0
 30 32  2  0
  8  2  1  0
 18  9  1  0
 16 11  1  0
 32 25  1  0
  1 33  1  0
  1 34  1  0
  1 35  1  0
  2 36  1  0
  3 37  1  0
  3 38  1  0
  5 39  1  0
  5 40  1  0
  6 41  1  0
  7 42  1  0
  7 43  1  0
  7 44  1  0
 12 45  1  0
 13 46  1  0
 14 47  1  0
 15 48  1  0
 19 49  1  0
 26 50  1  0
 27 51  1  0
 29 52  1  0
 29 53  1  0
 29 54  1  0
 31 55  1  0
 31 56  1  0
 31 57  1  0
 32 58  1  0
M  END
>  <Unnamed: 0>  (237) 
1501

>  <ID>  (237) 
TRAIN_1501

>  <Canonical_Smiles>  (237) 
CC1CN(CC(C)O1)c2nc3ccccc3nc2C(C#N)S(=O)(=O)c4ccc(C)c(C)c4

>  <Inhibition>  (237) 
82.47863

>  <TDC_conf_true_inhibitor>  (237) 
1

>  <TDC_conf_non_inhibitor>  (237) 
0

>  <split>  (237) 
1

$$$$
237
     RDKit          3D

 41 44  0  0  0  0  0  0  0  0999 V2000
   -4.7993    1.3675    0.2899 C   0  0  0  0  0  0  0  0  0  0  0  0
   -3.6812    1.2630    1.3260 C   0  0  0  0  0  0  0  0  0  0  0  0
   -3.7745   -0.0312    2.1351 C   0  0  0  0  0  0  0  0  0  0  0  0
   -2.3604    1.4708    0.7091 N   0  0  0  0  0  0  0  0  0  0  0  0
   -1.3116    1.8706    1.5767 N   0  0  0  0  0  0  0  0  0  0  0  0
   -0.1018    1.3418    1.1657 C   0  0  0  0  0  0  0  0  0  0  0  0
    1.0009    1.6772    1.5515 O   0  0  0  0  0  0  0  0  0  0  0  0
   -0.4077    0.3367    0.1467 C   0  0  0  0  0  0  0  0  0  0  0  0
   -1.7898    0.4308   -0.0678 C   0  0  0  0  0  0  0  0  0  0  0  0
   -2.4536   -0.3709   -0.9193 N   0  0  0  0  0  0  0  0  0  0  0  0
   -1.6780   -1.2591   -1.5610 C   0  0  0  0  0  0  0  0  0  0  0  0
   -2.2165   -2.1435   -2.4819 N   0  0  0  0  0  0  0  0  0  0  0  0
   -1.3369   -3.0002   -3.0844 C   0  0  0  0  0  0  0  0  0  0  0  0
   -1.6122   -3.8463   -3.9178 O   0  0  0  0  0  0  0  0  0  0  0  0
    0.2937   -2.7035   -2.4675 S   0  0  0  0  0  0  0  0  0  0  0  0
   -0.2944   -1.4071   -1.4021 C   0  0  0  0  0  0  0  0  0  0  0  0
    0.3977   -0.5876   -0.5138 C   0  0  0  0  0  0  0  0  0  0  0  0
    1.8408   -0.6930   -0.2888 C   0  0  0  0  0  0  0  0  0  0  0  0
    2.3915   -1.8068    0.3675 C   0  0  0  0  0  0  0  0  0  0  0  0
    3.7681   -1.9014    0.5881 C   0  0  0  0  0  0  0  0  0  0  0  0
    4.6139   -0.8754    0.1719 C   0  0  0  0  0  0  0  0  0  0  0  0
    4.0762    0.2458   -0.4569 C   0  0  0  0  0  0  0  0  0  0  0  0
    4.8536    1.2847   -0.8876 O   0  0  0  0  0  0  0  0  0  0  0  0
    5.5222    1.9093    0.2018 C   0  0  0  0  0  0  0  0  0  0  0  0
    6.6919    1.2587    0.4264 F   0  0  0  0  0  0  0  0  0  0  0  0
    5.8522    3.1654   -0.1950 F   0  0  0  0  0  0  0  0  0  0  0  0
    2.7076    0.3247   -0.7151 C   0  0  0  0  0  0  0  0  0  0  0  0
   -4.8078    0.5191   -0.4007 H   0  0  0  0  0  0  0  0  0  0  0  0
   -4.6972    2.2828   -0.3037 H   0  0  0  0  0  0  0  0  0  0  0  0
   -5.7763    1.3945    0.7845 H   0  0  0  0  0  0  0  0  0  0  0  0
   -3.8387    2.0941    2.0273 H   0  0  0  0  0  0  0  0  0  0  0  0
   -3.7027   -0.9211    1.5012 H   0  0  0  0  0  0  0  0  0  0  0  0
   -4.7322   -0.0819    2.6646 H   0  0  0  0  0  0  0  0  0  0  0  0
   -2.9765   -0.0878    2.8833 H   0  0  0  0  0  0  0  0  0  0  0  0
   -1.3253    2.8130    1.9539 H   0  0  0  0  0  0  0  0  0  0  0  0
   -3.1991   -2.1452   -2.7018 H   0  0  0  0  0  0  0  0  0  0  0  0
    1.7503   -2.6163    0.7121 H   0  0  0  0  0  0  0  0  0  0  0  0
    4.1798   -2.7773    1.0845 H   0  0  0  0  0  0  0  0  0  0  0  0
    5.6852   -0.9666    0.3319 H   0  0  0  0  0  0  0  0  0  0  0  0
    4.9306    1.9698    1.1236 H   0  0  0  0  0  0  0  0  0  0  0  0
    2.3173    1.2018   -1.2278 H   0  0  0  0  0  0  0  0  0  0  0  0
  1  2  1  0
  2  3  1  0
  2  4  1  0
  4  5  1  0
  5  6  1  0
  6  7  2  0
  6  8  1  0
  8  9  2  0
  9 10  1  0
 10 11  2  0
 11 12  1  0
 12 13  1  0
 13 14  2  0
 13 15  1  0
 15 16  1  0
 16 17  2  0
 17 18  1  0
 18 19  2  0
 19 20  1  0
 20 21  2  0
 21 22  1  0
 22 23  1  0
 23 24  1  0
 24 25  1  0
 24 26  1  0
 22 27  2  0
  9  4  1  0
 17  8  1  0
 16 11  1  0
 27 18  1  0
  1 28  1  0
  1 29  1  0
  1 30  1  0
  2 31  1  0
  3 32  1  0
  3 33  1  0
  3 34  1  0
  5 35  1  0
 12 36  1  0
 19 37  1  0
 20 38  1  0
 21 39  1  0
 24 40  1  0
 27 41  1  0
M  END
>  <Unnamed: 0>  (238) 
1503

>  <ID>  (238) 
TRAIN_1503

>  <Canonical_Smiles>  (238) 
CC(C)N1NC(=O)c2c1nc3NC(=O)Sc3c2c4cccc(OC(F)F)c4

>  <Inhibition>  (238) 
37.2331

>  <TDC_conf_true_inhibitor>  (238) 
0

>  <TDC_conf_non_inhibitor>  (238) 
1

>  <split>  (238) 
1

$$$$
238
     RDKit          3D

 57 59  0  0  0  0  0  0  0  0999 V2000
   -0.7796   -3.3473   -1.7613 O   0  0  0  0  0  0  0  0  0  0  0  0
   -1.7483   -3.8705   -1.2131 C   0  0  0  0  0  0  0  0  0  0  0  0
   -3.1847   -3.6325   -1.6853 C   0  0  0  0  0  0  0  0  0  0  0  0
   -3.2527   -2.4008   -2.4511 N   0  0  0  0  0  0  0  0  0  0  0  0
   -3.7384   -1.2397   -1.8859 C   0  0  0  0  0  0  0  0  0  0  0  0
   -4.2694   -1.2069   -0.7792 O   0  0  0  0  0  0  0  0  0  0  0  0
   -3.6199   -0.0186   -2.7829 C   0  0  0  0  0  0  0  0  0  0  0  0
   -2.7970    1.0968   -2.1904 C   0  0  0  0  0  0  0  0  0  0  0  0
   -1.4706    1.3012   -2.5972 C   0  0  0  0  0  0  0  0  0  0  0  0
   -0.7274    2.3628   -2.0775 C   0  0  0  0  0  0  0  0  0  0  0  0
   -1.2976    3.2227   -1.1392 C   0  0  0  0  0  0  0  0  0  0  0  0
   -2.6067    3.0134   -0.7093 C   0  0  0  0  0  0  0  0  0  0  0  0
   -3.3523    1.9543   -1.2297 C   0  0  0  0  0  0  0  0  0  0  0  0
   -1.6368   -4.7810   -0.1814 N   0  0  0  0  0  0  0  0  0  0  0  0
   -0.3582   -4.9658    0.4953 C   0  0  0  0  0  0  0  0  0  0  0  0
   -0.3174   -4.0793    1.7307 C   0  0  0  0  0  0  0  0  0  0  0  0
   -1.3115   -3.7847    2.3869 O   0  0  0  0  0  0  0  0  0  0  0  0
    0.9579   -3.7041    2.0105 O   0  0  0  0  0  0  0  0  0  0  0  0
    1.0971   -2.7226    3.0449 C   0  0  0  0  0  0  0  0  0  0  0  0
    1.0928   -1.3518    2.4182 C   0  0  0  0  0  0  0  0  0  0  0  0
   -0.1113   -0.6539    2.2471 C   0  0  0  0  0  0  0  0  0  0  0  0
   -0.1304    0.5774    1.5936 C   0  0  0  0  0  0  0  0  0  0  0  0
    1.0562    1.1324    1.1123 C   0  0  0  0  0  0  0  0  0  0  0  0
    2.2691    0.4582    1.2885 C   0  0  0  0  0  0  0  0  0  0  0  0
    2.2804   -0.7906    1.9243 C   0  0  0  0  0  0  0  0  0  0  0  0
    3.5526    0.9993    0.7645 C   0  0  0  0  0  0  0  0  0  0  0  0
    4.4658    0.2303    0.4752 O   0  0  0  0  0  0  0  0  0  0  0  0
    3.7605    2.4547    0.5735 C   0  0  0  0  0  0  0  0  0  0  0  0
    4.4252    2.8885   -0.5794 C   0  0  0  0  0  0  0  0  0  0  0  0
    4.6352    4.2517   -0.7906 C   0  0  0  0  0  0  0  0  0  0  0  0
    4.1958    5.1797    0.1553 C   0  0  0  0  0  0  0  0  0  0  0  0
    3.5576    4.7471    1.3188 C   0  0  0  0  0  0  0  0  0  0  0  0
    3.3441    3.3844    1.5340 C   0  0  0  0  0  0  0  0  0  0  0  0
   -3.4642   -4.4528   -2.3541 H   0  0  0  0  0  0  0  0  0  0  0  0
   -3.8688   -3.6040   -0.8320 H   0  0  0  0  0  0  0  0  0  0  0  0
   -2.5405   -2.3012   -3.1676 H   0  0  0  0  0  0  0  0  0  0  0  0
   -3.2112   -0.3018   -3.7604 H   0  0  0  0  0  0  0  0  0  0  0  0
   -4.6350    0.3404   -2.9883 H   0  0  0  0  0  0  0  0  0  0  0  0
   -1.0063    0.6424   -3.3292 H   0  0  0  0  0  0  0  0  0  0  0  0
    0.2981    2.5188   -2.4057 H   0  0  0  0  0  0  0  0  0  0  0  0
   -0.7194    4.0517   -0.7390 H   0  0  0  0  0  0  0  0  0  0  0  0
   -3.0517    3.6753    0.0306 H   0  0  0  0  0  0  0  0  0  0  0  0
   -4.3735    1.7997   -0.8822 H   0  0  0  0  0  0  0  0  0  0  0  0
   -2.4563   -4.9024    0.4051 H   0  0  0  0  0  0  0  0  0  0  0  0
    0.4674   -4.7199   -0.1785 H   0  0  0  0  0  0  0  0  0  0  0  0
   -0.2875   -6.0102    0.8111 H   0  0  0  0  0  0  0  0  0  0  0  0
    2.0555   -2.9033    3.5449 H   0  0  0  0  0  0  0  0  0  0  0  0
    0.3275   -2.8144    3.8213 H   0  0  0  0  0  0  0  0  0  0  0  0
   -1.0513   -1.0811    2.5954 H   0  0  0  0  0  0  0  0  0  0  0  0
   -1.0767    1.0905    1.4342 H   0  0  0  0  0  0  0  0  0  0  0  0
    1.0061    2.0750    0.5760 H   0  0  0  0  0  0  0  0  0  0  0  0
    3.2194   -1.3353    2.0178 H   0  0  0  0  0  0  0  0  0  0  0  0
    4.7783    2.1645   -1.3120 H   0  0  0  0  0  0  0  0  0  0  0  0
    5.1468    4.5891   -1.6893 H   0  0  0  0  0  0  0  0  0  0  0  0
    4.3631    6.2417   -0.0098 H   0  0  0  0  0  0  0  0  0  0  0  0
    3.2342    5.4724    2.0618 H   0  0  0  0  0  0  0  0  0  0  0  0
    2.8661    3.0602    2.4553 H   0  0  0  0  0  0  0  0  0  0  0  0
  1  2  2  0
  2  3  1  0
  3  4  1  0
  4  5  1  0
  5  6  2  0
  5  7  1  0
  7  8  1  0
  8  9  2  0
  9 10  1  0
 10 11  2  0
 11 12  1  0
 12 13  2  0
  2 14  1  0
 14 15  1  0
 15 16  1  0
 16 17  2  0
 16 18  1  0
 18 19  1  0
 19 20  1  0
 20 21  2  0
 21 22  1  0
 22 23  2  0
 23 24  1  0
 24 25  2  0
 24 26  1  0
 26 27  2  0
 26 28  1  0
 28 29  2  0
 29 30  1  0
 30 31  2  0
 31 32  1  0
 32 33  2  0
 13  8  1  0
 25 20  1  0
 33 28  1  0
  3 34  1  0
  3 35  1  0
  4 36  1  0
  7 37  1  0
  7 38  1  0
  9 39  1  0
 10 40  1  0
 11 41  1  0
 12 42  1  0
 13 43  1  0
 14 44  1  0
 15 45  1  0
 15 46  1  0
 19 47  1  0
 19 48  1  0
 21 49  1  0
 22 50  1  0
 23 51  1  0
 25 52  1  0
 29 53  1  0
 30 54  1  0
 31 55  1  0
 32 56  1  0
 33 57  1  0
M  END
>  <Unnamed: 0>  (239) 
1507

>  <ID>  (239) 
TRAIN_1507

>  <Canonical_Smiles>  (239) 
O=C(CNC(=O)Cc1ccccc1)NCC(=O)OCc2cccc(c2)C(=O)c3ccccc3

>  <Inhibition>  (239) 
73.74671

>  <TDC_conf_true_inhibitor>  (239) 
1

>  <TDC_conf_non_inhibitor>  (239) 
0

>  <split>  (239) 
1

$$$$
239
     RDKit          3D

 38 41  0  0  0  0  0  0  0  0999 V2000
   -2.7528   -3.3459   -0.3773 C   0  0  0  0  0  0  0  0  0  0  0  0
   -2.9121   -2.0211    0.1910 N   0  0  0  0  0  0  0  0  0  0  0  0
   -4.0360   -1.7045    0.9478 C   0  0  0  0  0  0  0  0  0  0  0  0
   -4.9494   -2.4936    1.1885 O   0  0  0  0  0  0  0  0  0  0  0  0
   -4.1134   -0.4190    1.4532 N   0  0  0  0  0  0  0  0  0  0  0  0
   -3.2013    0.6027    1.2976 C   0  0  0  0  0  0  0  0  0  0  0  0
   -3.3778    1.7077    1.7959 O   0  0  0  0  0  0  0  0  0  0  0  0
   -2.0876    0.2126    0.5188 C   0  0  0  0  0  0  0  0  0  0  0  0
   -1.9515   -1.0500   -0.0118 C   0  0  0  0  0  0  0  0  0  0  0  0
   -0.7935   -1.2139   -0.7295 N   0  0  0  0  0  0  0  0  0  0  0  0
   -0.2392   -0.0338   -0.6369 C   0  0  0  0  0  0  0  0  0  0  0  0
    0.8791    0.6180   -1.0427 N   0  0  0  0  0  0  0  0  0  0  0  0
    1.9828   -0.0869   -1.6695 C   0  0  0  0  0  0  0  0  0  0  0  0
    2.9802   -0.6679   -0.7232 C   0  0  0  0  0  0  0  0  0  0  0  0
    4.2452   -0.1552   -0.7648 O   0  0  0  0  0  0  0  0  0  0  0  0
    4.9722   -0.8209    0.1691 C   0  0  0  0  0  0  0  0  0  0  0  0
    4.1946   -1.7564    0.8101 C   0  0  0  0  0  0  0  0  0  0  0  0
    2.9060   -1.6599    0.2338 C   0  0  0  0  0  0  0  0  0  0  0  0
    0.8577    1.9238   -0.4880 C   0  0  0  0  0  0  0  0  0  0  0  0
    1.9708    2.8912   -0.6943 C   0  0  0  0  0  0  0  0  0  0  0  0
   -0.2985    2.0765    0.2134 C   0  0  0  0  0  0  0  0  0  0  0  0
   -0.8196    3.2323    0.9808 C   0  0  0  0  0  0  0  0  0  0  0  0
   -0.9674    0.8604    0.1175 N   0  0  0  0  0  0  0  0  0  0  0  0
   -2.6880   -3.2619   -1.4667 H   0  0  0  0  0  0  0  0  0  0  0  0
   -3.5937   -3.9974   -0.1253 H   0  0  0  0  0  0  0  0  0  0  0  0
   -1.8330   -3.7937    0.0119 H   0  0  0  0  0  0  0  0  0  0  0  0
   -4.9349   -0.2099    1.9986 H   0  0  0  0  0  0  0  0  0  0  0  0
    1.5965   -0.8970   -2.3027 H   0  0  0  0  0  0  0  0  0  0  0  0
    2.4951    0.5947   -2.3604 H   0  0  0  0  0  0  0  0  0  0  0  0
    6.0071   -0.5205    0.2567 H   0  0  0  0  0  0  0  0  0  0  0  0
    4.5176   -2.4238    1.5965 H   0  0  0  0  0  0  0  0  0  0  0  0
    2.0227   -2.2336    0.4809 H   0  0  0  0  0  0  0  0  0  0  0  0
    1.7697    3.8584   -0.2259 H   0  0  0  0  0  0  0  0  0  0  0  0
    2.1280    3.0685   -1.7629 H   0  0  0  0  0  0  0  0  0  0  0  0
    2.9002    2.5031   -0.2665 H   0  0  0  0  0  0  0  0  0  0  0  0
   -1.7790    3.5644    0.5716 H   0  0  0  0  0  0  0  0  0  0  0  0
   -0.9587    2.9655    2.0331 H   0  0  0  0  0  0  0  0  0  0  0  0
   -0.1384    4.0872    0.9488 H   0  0  0  0  0  0  0  0  0  0  0  0
  1  2  1  0
  2  3  1  0
  3  4  2  0
  3  5  1  0
  5  6  1  0
  6  7  2  0
  6  8  1  0
  8  9  2  0
  9 10  1  0
 10 11  2  0
 11 12  1  0
 12 13  1  0
 13 14  1  0
 14 15  1  0
 15 16  1  0
 16 17  2  0
 17 18  1  0
 12 19  1  0
 19 20  1  0
 19 21  2  0
 21 22  1  0
 21 23  1  0
  9  2  1  0
 23  8  1  0
 23 11  1  0
 18 14  2  0
  1 24  1  0
  1 25  1  0
  1 26  1  0
  5 27  1  0
 13 28  1  0
 13 29  1  0
 16 30  1  0
 17 31  1  0
 18 32  1  0
 20 33  1  0
 20 34  1  0
 20 35  1  0
 22 36  1  0
 22 37  1  0
 22 38  1  0
M  END
>  <Unnamed: 0>  (240) 
1517

>  <ID>  (240) 
TRAIN_1517

>  <Canonical_Smiles>  (240) 
CN1C(=O)NC(=O)c2c1nc3n(Cc4occc4)c(C)c(C)n23

>  <Inhibition>  (240) 
16.378943

>  <TDC_conf_true_inhibitor>  (240) 
0

>  <TDC_conf_non_inhibitor>  (240) 
1

>  <split>  (240) 
1

$$$$
240
     RDKit          3D

 52 55  0  0  0  0  0  0  0  0999 V2000
    7.5951   -1.2422   -1.3287 C   0  0  0  0  0  0  0  0  0  0  0  0
    6.3154   -0.6987   -0.7555 C   0  0  0  0  0  0  0  0  0  0  0  0
    5.9655    0.6376   -1.0012 C   0  0  0  0  0  0  0  0  0  0  0  0
    4.7853    1.1747   -0.4858 C   0  0  0  0  0  0  0  0  0  0  0  0
    3.9288    0.3864    0.2894 C   0  0  0  0  0  0  0  0  0  0  0  0
    2.6491    0.9687    0.8427 C   0  0  0  0  0  0  0  0  0  0  0  0
    1.5142    1.0450   -0.1838 C   0  0  0  0  0  0  0  0  0  0  0  0
    0.7851   -0.5703   -0.5544 S   0  0  0  0  0  0  0  0  0  0  0  0
   -0.7996   -0.1097    0.0285 C   0  0  0  0  0  0  0  0  0  0  0  0
   -1.7057   -1.0335    0.0256 N   0  0  0  0  0  0  0  0  0  0  0  0
   -2.9466   -0.7321    0.5595 N   0  0  0  0  0  0  0  0  0  0  0  0
   -3.7824   -1.6929    0.3168 C   0  0  0  0  0  0  0  0  0  0  0  0
   -5.1742   -1.6633    0.7980 C   0  0  0  0  0  0  0  0  0  0  0  0
   -5.6115   -0.6668    1.6673 C   0  0  0  0  0  0  0  0  0  0  0  0
   -6.9296   -0.7086    2.0793 C   0  0  0  0  0  0  0  0  0  0  0  0
   -7.8072   -1.6566    1.6845 N   0  0  0  0  0  0  0  0  0  0  0  0
   -7.3493   -2.6107    0.8446 C   0  0  0  0  0  0  0  0  0  0  0  0
   -6.0496   -2.6605    0.3761 C   0  0  0  0  0  0  0  0  0  0  0  0
   -0.8191    1.2023    0.4184 N   0  0  0  0  0  0  0  0  0  0  0  0
   -2.0099    1.9439    0.8003 C   0  0  0  0  0  0  0  0  0  0  0  0
   -2.7505    2.3724   -0.4216 C   0  0  0  0  0  0  0  0  0  0  0  0
   -2.0768    3.1781   -1.2970 O   0  0  0  0  0  0  0  0  0  0  0  0
   -2.9247    3.4519   -2.3206 C   0  0  0  0  0  0  0  0  0  0  0  0
   -4.1383    2.8366   -2.1192 C   0  0  0  0  0  0  0  0  0  0  0  0
   -4.0272    2.1391   -0.8929 C   0  0  0  0  0  0  0  0  0  0  0  0
    0.3809    1.8833    0.3638 C   0  0  0  0  0  0  0  0  0  0  0  0
    0.5506    3.0436    0.7326 O   0  0  0  0  0  0  0  0  0  0  0  0
    4.2721   -0.9502    0.5337 C   0  0  0  0  0  0  0  0  0  0  0  0
    5.4548   -1.5047    0.0159 C   0  0  0  0  0  0  0  0  0  0  0  0
    5.7782   -2.9456    0.3024 C   0  0  0  0  0  0  0  0  0  0  0  0
    7.3813   -2.0470   -2.0396 H   0  0  0  0  0  0  0  0  0  0  0  0
    8.1554   -0.4682   -1.8627 H   0  0  0  0  0  0  0  0  0  0  0  0
    8.2408   -1.6217   -0.5302 H   0  0  0  0  0  0  0  0  0  0  0  0
    6.6142    1.2743   -1.6001 H   0  0  0  0  0  0  0  0  0  0  0  0
    4.5440    2.2154   -0.6917 H   0  0  0  0  0  0  0  0  0  0  0  0
    2.8826    1.9749    1.2175 H   0  0  0  0  0  0  0  0  0  0  0  0
    2.3345    0.4106    1.7356 H   0  0  0  0  0  0  0  0  0  0  0  0
    1.8442    1.5018   -1.1235 H   0  0  0  0  0  0  0  0  0  0  0  0
   -3.4751   -2.5799   -0.2688 H   0  0  0  0  0  0  0  0  0  0  0  0
   -4.9493    0.1142    2.0224 H   0  0  0  0  0  0  0  0  0  0  0  0
   -7.3294    0.0389    2.7597 H   0  0  0  0  0  0  0  0  0  0  0  0
   -8.0815   -3.3571    0.5493 H   0  0  0  0  0  0  0  0  0  0  0  0
   -5.7406   -3.4515   -0.2978 H   0  0  0  0  0  0  0  0  0  0  0  0
   -1.7325    2.8404    1.3671 H   0  0  0  0  0  0  0  0  0  0  0  0
   -2.6382    1.3539    1.4696 H   0  0  0  0  0  0  0  0  0  0  0  0
   -2.5258    4.0871   -3.0990 H   0  0  0  0  0  0  0  0  0  0  0  0
   -4.9957    2.8853   -2.7763 H   0  0  0  0  0  0  0  0  0  0  0  0
   -4.7841    1.5362   -0.4118 H   0  0  0  0  0  0  0  0  0  0  0  0
    3.6068   -1.5723    1.1314 H   0  0  0  0  0  0  0  0  0  0  0  0
    5.8995   -3.5015   -0.6337 H   0  0  0  0  0  0  0  0  0  0  0  0
    6.6983   -3.0177    0.8924 H   0  0  0  0  0  0  0  0  0  0  0  0
    4.9780   -3.4333    0.8715 H   0  0  0  0  0  0  0  0  0  0  0  0
  1  2  1  0
  2  3  2  0
  3  4  1  0
  4  5  2  0
  5  6  1  0
  6  7  1  0
  7  8  1  0
  8  9  1  0
  9 10  2  0
 10 11  1  0
 11 12  2  0
 12 13  1  0
 13 14  2  0
 14 15  1  0
 15 16  2  0
 16 17  1  0
 17 18  2  0
  9 19  1  0
 19 20  1  0
 20 21  1  0
 21 22  1  0
 22 23  1  0
 23 24  2  0
 24 25  1  0
 19 26  1  0
 26 27  2  0
  5 28  1  0
 28 29  2  0
 29 30  1  0
 29  2  1  0
 26  7  1  0
 18 13  1  0
 25 21  2  0
  1 31  1  0
  1 32  1  0
  1 33  1  0
  3 34  1  0
  4 35  1  0
  6 36  1  0
  6 37  1  0
  7 38  1  0
 12 39  1  0
 14 40  1  0
 15 41  1  0
 17 42  1  0
 18 43  1  0
 20 44  1  0
 20 45  1  0
 23 46  1  0
 24 47  1  0
 25 48  1  0
 28 49  1  0
 30 50  1  0
 30 51  1  0
 30 52  1  0
M  END
>  <Unnamed: 0>  (241) 
1527

>  <ID>  (241) 
TRAIN_1527

>  <Canonical_Smiles>  (241) 
Cc1ccc(CC2S\C(=N\N=C\c3ccncc3)\N(Cc4occc4)C2=O)cc1C

>  <Inhibition>  (241) 
84.580373

>  <TDC_conf_true_inhibitor>  (241) 
1

>  <TDC_conf_non_inhibitor>  (241) 
0

>  <split>  (241) 
1

$$$$
241
     RDKit          3D

 30 32  0  0  0  0  0  0  0  0999 V2000
    4.6182    1.8559   -1.1888 N   0  0  0  0  0  0  0  0  0  0  0  0
    3.7452    1.0146   -0.4900 C   0  0  0  0  0  0  0  0  0  0  0  0
    4.0328   -0.3456   -0.3580 C   0  0  0  0  0  0  0  0  0  0  0  0
    3.2294   -1.1733    0.4338 C   0  0  0  0  0  0  0  0  0  0  0  0
    2.1459   -0.6406    1.1360 C   0  0  0  0  0  0  0  0  0  0  0  0
    1.1414   -1.7005    2.1560 S   0  0  0  0  0  0  0  0  0  0  0  0
   -0.2912   -1.8738    1.1206 C   0  0  0  0  0  0  0  0  0  0  0  0
   -0.5847   -3.1094    0.6814 N   0  0  0  0  0  0  0  0  0  0  0  0
   -1.6766   -3.2214   -0.0918 C   0  0  0  0  0  0  0  0  0  0  0  0
   -2.4769   -2.1581   -0.4326 C   0  0  0  0  0  0  0  0  0  0  0  0
   -2.0971   -0.9307    0.0711 C   0  0  0  0  0  0  0  0  0  0  0  0
   -1.0141   -0.7747    0.8568 N   0  0  0  0  0  0  0  0  0  0  0  0
   -2.8687    0.2901   -0.2098 C   0  0  0  0  0  0  0  0  0  0  0  0
   -4.2191    0.4274   -0.4915 C   0  0  0  0  0  0  0  0  0  0  0  0
   -4.6048    1.7805   -0.7246 C   0  0  0  0  0  0  0  0  0  0  0  0
   -3.5392    2.6429   -0.6183 C   0  0  0  0  0  0  0  0  0  0  0  0
   -2.0886    1.8254   -0.2399 S   0  0  0  0  0  0  0  0  0  0  0  0
    1.8980    0.7320    1.0625 C   0  0  0  0  0  0  0  0  0  0  0  0
    2.7036    1.5539    0.2676 C   0  0  0  0  0  0  0  0  0  0  0  0
    5.1231    1.3918   -1.9370 H   0  0  0  0  0  0  0  0  0  0  0  0
    4.1908    2.7250   -1.4931 H   0  0  0  0  0  0  0  0  0  0  0  0
    4.8876   -0.7769   -0.8718 H   0  0  0  0  0  0  0  0  0  0  0  0
    3.4658   -2.2322    0.5041 H   0  0  0  0  0  0  0  0  0  0  0  0
   -1.8952   -4.2257   -0.4433 H   0  0  0  0  0  0  0  0  0  0  0  0
   -3.3413   -2.2905   -1.0678 H   0  0  0  0  0  0  0  0  0  0  0  0
   -4.9134   -0.4034   -0.5187 H   0  0  0  0  0  0  0  0  0  0  0  0
   -5.6128    2.1036   -0.9545 H   0  0  0  0  0  0  0  0  0  0  0  0
   -3.5401    3.7172   -0.7419 H   0  0  0  0  0  0  0  0  0  0  0  0
    1.0779    1.1748    1.6233 H   0  0  0  0  0  0  0  0  0  0  0  0
    2.5042    2.6218    0.2459 H   0  0  0  0  0  0  0  0  0  0  0  0
  1  2  1  0
  2  3  2  0
  3  4  1  0
  4  5  2  0
  5  6  1  0
  6  7  1  0
  7  8  2  0
  8  9  1  0
  9 10  2  0
 10 11  1  0
 11 12  2  0
 11 13  1  0
 13 14  2  0
 14 15  1  0
 15 16  2  0
 16 17  1  0
  5 18  1  0
 18 19  2  0
 19  2  1  0
 12  7  1  0
 17 13  1  0
  1 20  1  0
  1 21  1  0
  3 22  1  0
  4 23  1  0
  9 24  1  0
 10 25  1  0
 14 26  1  0
 15 27  1  0
 16 28  1  0
 18 29  1  0
 19 30  1  0
M  END
>  <Unnamed: 0>  (242) 
1531

>  <ID>  (242) 
TRAIN_1531

>  <Canonical_Smiles>  (242) 
Nc1ccc(Sc2nccc(n2)c3cccs3)cc1

>  <Inhibition>  (242) 
46.420444

>  <TDC_conf_true_inhibitor>  (242) 
1

>  <TDC_conf_non_inhibitor>  (242) 
0

>  <split>  (242) 
1

$$$$
242
     RDKit          3D

 46 47  0  0  0  0  0  0  0  0999 V2000
    0.7595    0.0000    0.0000 Br  0  0  0  0  0  0  0  0  0  0  0  0
   -4.1120    1.5040   -1.8372 C   0  0  0  0  0  0  0  0  0  0  0  0
   -3.0981    0.5316   -1.3382 C   0  0  0  0  0  0  0  0  0  0  0  0
   -1.9139    1.1916   -0.6766 C   0  0  0  0  0  0  0  0  0  0  0  0
   -2.5341    1.5176    0.6944 C   0  0  0  0  0  0  0  0  0  0  0  0
   -2.8463    0.0456    1.0327 C   0  0  0  0  0  0  0  0  0  0  0  0
   -1.4196   -0.4876    0.9702 C   0  0  0  0  0  0  0  0  0  0  0  0
   -0.9740    0.1156   -0.3020 C   0  0  0  0  0  0  0  0  0  0  0  0
    0.0449   -0.2157   -0.9833 N   0  0  0  0  0  0  0  0  0  0  0  0
    0.9011   -1.2022   -0.6337 N   0  0  0  0  0  0  0  0  0  0  0  0
    2.3773   -0.9615   -0.4309 C   0  0  0  0  0  0  0  0  0  0  0  0
    3.3643   -1.4420   -0.1631 N   0  0  0  0  0  0  0  0  0  0  0  0
    4.5754   -0.9255   -0.0623 C   0  0  0  0  0  0  0  0  0  0  0  0
    5.7928   -1.7373    0.3162 C   0  0  0  0  0  0  0  0  0  0  0  0
    4.6546    0.4107   -0.3238 C   0  0  0  0  0  0  0  0  0  0  0  0
    2.9274    0.8178   -0.7032 S   0  0  0  0  0  0  0  0  0  0  0  0
    5.7240    1.4004   -0.3403 C   0  0  0  0  0  0  0  0  0  0  0  0
    5.4562    2.6040   -0.6393 O   0  0  0  0  0  0  0  0  0  0  0  0
    7.1004    1.0510   -0.0224 C   0  0  0  0  0  0  0  0  0  0  0  0
   -3.6345   -0.3309   -0.1893 C   0  0  0  0  0  0  0  0  0  0  0  0
   -5.0883   -0.0013    0.0680 C   0  0  0  0  0  0  0  0  0  0  0  0
   -3.5258   -1.7637   -0.5728 C   0  0  0  0  0  0  0  0  0  0  0  0
   -0.7595    0.0000    0.0000 H   0  0  0  0  0  0  0  0  0  0  0  0
   -4.2173    2.4180   -1.2541 H   0  0  0  0  0  0  0  0  0  0  0  0
   -5.0964    1.0202   -1.9695 H   0  0  0  0  0  0  0  0  0  0  0  0
   -3.7879    1.8182   -2.8688 H   0  0  0  0  0  0  0  0  0  0  0  0
   -2.7496   -0.1133   -2.1715 H   0  0  0  0  0  0  0  0  0  0  0  0
   -1.5015    2.0370   -1.1769 H   0  0  0  0  0  0  0  0  0  0  0  0
   -3.4425    2.1053    0.6069 H   0  0  0  0  0  0  0  0  0  0  0  0
   -1.8066    1.9393    1.3841 H   0  0  0  0  0  0  0  0  0  0  0  0
   -3.3380   -0.0795    1.9777 H   0  0  0  0  0  0  0  0  0  0  0  0
   -1.3593   -1.5686    1.0068 H   0  0  0  0  0  0  0  0  0  0  0  0
   -0.8619   -0.0043    1.7955 H   0  0  0  0  0  0  0  0  0  0  0  0
    0.6485   -2.1653   -0.4787 H   0  0  0  0  0  0  0  0  0  0  0  0
    5.5327   -2.8201    0.2258 H   0  0  0  0  0  0  0  0  0  0  0  0
    6.6259   -1.5762   -0.3652 H   0  0  0  0  0  0  0  0  0  0  0  0
    6.0411   -1.5989    1.3945 H   0  0  0  0  0  0  0  0  0  0  0  0
    7.5608    0.5162   -0.8997 H   0  0  0  0  0  0  0  0  0  0  0  0
    7.6898    1.9825    0.1944 H   0  0  0  0  0  0  0  0  0  0  0  0
    7.2106    0.3752    0.8473 H   0  0  0  0  0  0  0  0  0  0  0  0
   -5.2565    1.0772    0.2554 H   0  0  0  0  0  0  0  0  0  0  0  0
   -5.7681   -0.4271   -0.6955 H   0  0  0  0  0  0  0  0  0  0  0  0
   -5.3544   -0.5186    1.0322 H   0  0  0  0  0  0  0  0  0  0  0  0
   -4.5299   -2.2062   -0.8033 H   0  0  0  0  0  0  0  0  0  0  0  0
   -3.0864   -2.4134    0.2063 H   0  0  0  0  0  0  0  0  0  0  0  0
   -2.9253   -1.9197   -1.4985 H   0  0  0  0  0  0  0  0  0  0  0  0
  2  3  1  0
  3  4  1  0
  4  5  1  0
  5  6  1  0
  6  7  1  0
  7  8  1  0
  8  9  2  0
  9 10  1  0
 10 11  1  0
 11 12  2  0
 12 13  1  0
 13 14  1  0
 13 15  2  0
 15 16  1  0
 15 17  1  0
 17 18  2  0
 17 19  1  0
  6 20  1  0
 20 21  1  0
 20 22  1  0
 20  3  1  0
  8  4  1  0
 16 11  1  0
  1 23  1  0
  2 24  1  0
  2 25  1  0
  2 26  1  0
  3 27  1  0
  4 28  1  0
  5 29  1  0
  5 30  1  0
  6 31  1  0
  7 32  1  0
  7 33  1  0
 10 34  1  0
 14 35  1  0
 14 36  1  0
 14 37  1  0
 19 38  1  0
 19 39  1  0
 19 40  1  0
 21 41  1  0
 21 42  1  0
 21 43  1  0
 22 44  1  0
 22 45  1  0
 22 46  1  0
M  END
>  <Unnamed: 0>  (243) 
1545

>  <ID>  (243) 
TRAIN_1545

>  <Canonical_Smiles>  (243) 
Br.CC1C2CC(C/C/2=N\Nc3nc(C)c(s3)C(=O)C)C1(C)C

>  <Inhibition>  (243) 
20.41068

>  <TDC_conf_true_inhibitor>  (243) 
0

>  <TDC_conf_non_inhibitor>  (243) 
1

>  <split>  (243) 
1

$$$$
243
     RDKit          3D

 37 38  0  0  0  0  0  0  0  0999 V2000
    0.0000    0.0000    0.0000 Na  0  0  0  0  0 15  0  0  0  0  0  0
    5.8939    0.8747    1.6356 C   0  0  0  0  0  0  0  0  0  0  0  0
    4.7494    0.0478    1.4820 O   0  0  0  0  0  0  0  0  0  0  0  0
    3.9399    0.3347    0.4141 C   0  0  0  0  0  0  0  0  0  0  0  0
    4.3273    1.0504   -0.7211 C   0  0  0  0  0  0  0  0  0  0  0  0
    3.4157    1.2716   -1.7558 C   0  0  0  0  0  0  0  0  0  0  0  0
    2.1174    0.7688   -1.6633 C   0  0  0  0  0  0  0  0  0  0  0  0
    1.7100    0.0364   -0.5371 C   0  0  0  0  0  0  0  0  0  0  0  0
    2.6401   -0.1729    0.4961 C   0  0  0  0  0  0  0  0  0  0  0  0
    0.3810   -0.5105   -0.4591 N   0  0  0  0  0  0  0  0  0  0  0  0
   -0.0037   -1.4806   -1.3706 C   0  0  0  0  0  0  0  0  0  0  0  0
   -1.0850   -2.1747   -1.4053 N   0  0  0  0  0  0  0  0  0  0  0  0
   -1.9773   -1.9675   -0.3807 C   0  0  0  0  0  0  0  0  0  0  0  0
   -2.9365   -2.7204   -0.2211 O   0  0  0  0  0  0  0  0  0  0  0  0
   -1.7574   -0.8073    0.5422 C   0  0  0  0  0  0  0  0  0  0  0  0
   -0.5770   -0.1367    0.5250 C   0  0  0  0  0  0  0  0  0  0  0  0
   -0.2239    0.8286    1.2575 O   0  0  0  0  0  1  0  0  0  0  0  0
   -2.8816   -0.5224    1.5101 C   0  0  0  0  0  0  0  0  0  0  0  0
   -4.1341    0.0797    0.9110 C   0  0  0  0  0  0  0  0  0  0  0  0
   -5.2412   -0.5760    0.4056 C   0  0  0  0  0  0  0  0  0  0  0  0
   -6.2358    0.3221   -0.0762 C   0  0  0  0  0  0  0  0  0  0  0  0
   -5.8588    1.6362    0.0812 C   0  0  0  0  0  0  0  0  0  0  0  0
   -4.3166    1.7811    0.8057 S   0  0  0  0  0  0  0  0  0  0  0  0
    0.8550   -1.7817   -2.3724 O   0  0  0  0  0  0  0  0  0  0  0  0
    6.6485    0.6404    0.8779 H   0  0  0  0  0  0  0  0  0  0  0  0
    5.6303    1.9378    1.6143 H   0  0  0  0  0  0  0  0  0  0  0  0
    6.3318    0.6609    2.6155 H   0  0  0  0  0  0  0  0  0  0  0  0
    5.3305    1.4447   -0.8296 H   0  0  0  0  0  0  0  0  0  0  0  0
    3.7109    1.8374   -2.6337 H   0  0  0  0  0  0  0  0  0  0  0  0
    1.4048    0.9529   -2.4620 H   0  0  0  0  0  0  0  0  0  0  0  0
    2.3248   -0.7198    1.3809 H   0  0  0  0  0  0  0  0  0  0  0  0
   -2.5434    0.1220    2.3325 H   0  0  0  0  0  0  0  0  0  0  0  0
   -3.1577   -1.4603    2.0129 H   0  0  0  0  0  0  0  0  0  0  0  0
   -5.3190   -1.6567    0.3730 H   0  0  0  0  0  0  0  0  0  0  0  0
   -7.1738    0.0171   -0.5206 H   0  0  0  0  0  0  0  0  0  0  0  0
   -6.4082    2.5238   -0.1965 H   0  0  0  0  0  0  0  0  0  0  0  0
    0.4197   -2.4817   -2.8811 H   0  0  0  0  0  0  0  0  0  0  0  0
  2  3  1  0
  3  4  1  0
  4  5  2  0
  5  6  1  0
  6  7  2  0
  7  8  1  0
  8  9  2  0
  8 10  1  0
 10 11  1  0
 11 12  2  0
 12 13  1  0
 13 14  2  0
 13 15  1  0
 15 16  2  0
 16 17  1  0
 15 18  1  0
 18 19  1  0
 19 20  2  0
 20 21  1  0
 21 22  2  0
 22 23  1  0
 11 24  1  0
  9  4  1  0
 16 10  1  0
 23 19  1  0
  2 25  1  0
  2 26  1  0
  2 27  1  0
  5 28  1  0
  6 29  1  0
  7 30  1  0
  9 31  1  0
 18 32  1  0
 18 33  1  0
 20 34  1  0
 21 35  1  0
 22 36  1  0
 24 37  1  0
M  CHG  2   1   1  17  -1
M  END
>  <Unnamed: 0>  (244) 
1552

>  <ID>  (244) 
TRAIN_1552

>  <Canonical_Smiles>  (244) 
[Na+].COc1cccc(c1)N2C(=NC(=O)C(=C2[O-])Cc3cccs3)O

>  <Inhibition>  (244) 
5.824922

>  <TDC_conf_true_inhibitor>  (244) 
0

>  <TDC_conf_non_inhibitor>  (244) 
1

>  <split>  (244) 
1

$$$$
244
     RDKit          3D

 55 58  0  0  0  0  0  0  0  0999 V2000
    3.9417    2.6749    1.1041 C   0  0  0  0  0  0  0  0  0  0  0  0
    4.3933    1.4260    0.3352 C   0  0  0  0  0  0  0  0  0  0  0  0
    5.7035    1.7418   -0.3961 C   0  0  0  0  0  0  0  0  0  0  0  0
    3.3083    0.9846   -0.6692 C   0  0  0  0  0  0  0  0  0  0  0  0
    2.2580    0.0909    0.0064 C   0  0  0  0  0  0  0  0  0  0  0  0
    2.9503   -1.1318    0.6386 C   0  0  0  0  0  0  0  0  0  0  0  0
    4.4339   -0.9046    0.8828 C   0  0  0  0  0  0  0  0  0  0  0  0
    4.6526    0.4257    1.3307 O   0  0  0  0  0  0  0  0  0  0  0  0
    1.2127   -0.3614   -0.9421 N   0  0  0  0  0  0  0  0  0  0  0  0
    0.8213    0.5364   -1.9491 N   0  0  0  0  0  0  0  0  0  0  0  0
   -0.4913    0.2657   -2.2813 C   0  0  0  0  0  0  0  0  0  0  0  0
   -1.1027    0.6888   -3.2446 O   0  0  0  0  0  0  0  0  0  0  0  0
   -1.0149   -0.6607   -1.2625 C   0  0  0  0  0  0  0  0  0  0  0  0
    0.0429   -0.9895   -0.4938 C   0  0  0  0  0  0  0  0  0  0  0  0
   -0.0814   -1.7800    0.6171 N   0  0  0  0  0  0  0  0  0  0  0  0
   -0.6180   -2.9416    0.4365 C   0  0  0  0  0  0  0  0  0  0  0  0
   -0.7679   -3.7122    1.5250 O   0  0  0  0  0  0  0  0  0  0  0  0
   -1.1043   -3.5689   -0.8403 C   0  0  0  0  0  0  0  0  0  0  0  0
   -2.6782   -2.8594   -1.4244 S   0  0  0  0  0  0  0  0  0  0  0  0
   -2.4508   -1.0316   -1.1615 C   0  0  0  0  0  0  0  0  0  0  0  0
   -3.1564   -0.5452    0.1464 C   0  0  0  0  0  0  0  0  0  0  0  0
   -4.6932   -0.7640    0.1251 C   0  0  0  0  0  0  0  0  0  0  0  0
   -5.4618    0.4988   -0.2489 C   0  0  0  0  0  0  0  0  0  0  0  0
   -5.2201    1.6270    0.7526 C   0  0  0  0  0  0  0  0  0  0  0  0
   -3.8326    1.5760    1.3897 C   0  0  0  0  0  0  0  0  0  0  0  0
   -2.8132    0.9346    0.4567 C   0  0  0  0  0  0  0  0  0  0  0  0
    3.0362    2.4738    1.6870 H   0  0  0  0  0  0  0  0  0  0  0  0
    4.7062    2.9859    1.8258 H   0  0  0  0  0  0  0  0  0  0  0  0
    3.7412    3.5152    0.4314 H   0  0  0  0  0  0  0  0  0  0  0  0
    5.5713    2.5450   -1.1285 H   0  0  0  0  0  0  0  0  0  0  0  0
    6.0878    0.8596   -0.9196 H   0  0  0  0  0  0  0  0  0  0  0  0
    6.4836    2.0415    0.3131 H   0  0  0  0  0  0  0  0  0  0  0  0
    3.7644    0.4196   -1.4946 H   0  0  0  0  0  0  0  0  0  0  0  0
    2.8535    1.8694   -1.1311 H   0  0  0  0  0  0  0  0  0  0  0  0
    1.7694    0.6739    0.7986 H   0  0  0  0  0  0  0  0  0  0  0  0
    2.4642   -1.3355    1.6014 H   0  0  0  0  0  0  0  0  0  0  0  0
    2.8276   -2.0381    0.0331 H   0  0  0  0  0  0  0  0  0  0  0  0
    5.0256   -1.1021   -0.0185 H   0  0  0  0  0  0  0  0  0  0  0  0
    4.7927   -1.5903    1.6572 H   0  0  0  0  0  0  0  0  0  0  0  0
    1.4596    0.7628   -2.7032 H   0  0  0  0  0  0  0  0  0  0  0  0
   -0.4394   -3.2068    2.2881 H   0  0  0  0  0  0  0  0  0  0  0  0
   -0.3400   -3.4758   -1.6186 H   0  0  0  0  0  0  0  0  0  0  0  0
   -1.2586   -4.6411   -0.6806 H   0  0  0  0  0  0  0  0  0  0  0  0
   -2.9902   -0.5733   -1.9995 H   0  0  0  0  0  0  0  0  0  0  0  0
   -2.7754   -1.1441    0.9852 H   0  0  0  0  0  0  0  0  0  0  0  0
   -4.9866   -1.5718   -0.5511 H   0  0  0  0  0  0  0  0  0  0  0  0
   -5.0146   -1.0815    1.1263 H   0  0  0  0  0  0  0  0  0  0  0  0
   -6.5354    0.2857   -0.3056 H   0  0  0  0  0  0  0  0  0  0  0  0
   -5.1560    0.8245   -1.2510 H   0  0  0  0  0  0  0  0  0  0  0  0
   -5.3616    2.5872    0.2419 H   0  0  0  0  0  0  0  0  0  0  0  0
   -5.9747    1.5895    1.5475 H   0  0  0  0  0  0  0  0  0  0  0  0
   -3.8782    1.0029    2.3243 H   0  0  0  0  0  0  0  0  0  0  0  0
   -3.5158    2.5895    1.6605 H   0  0  0  0  0  0  0  0  0  0  0  0
   -2.7679    1.5201   -0.4706 H   0  0  0  0  0  0  0  0  0  0  0  0
   -1.8205    0.9940    0.9183 H   0  0  0  0  0  0  0  0  0  0  0  0
  1  2  1  0
  2  3  1  0
  2  4  1  0
  4  5  1  0
  5  6  1  0
  6  7  1  0
  7  8  1  0
  5  9  1  0
  9 10  1  0
 10 11  1  0
 11 12  2  0
 11 13  1  0
 13 14  2  0
 14 15  1  0
 15 16  2  0
 16 17  1  0
 16 18  1  0
 18 19  1  0
 19 20  1  0
 20 21  1  0
 21 22  1  0
 22 23  1  0
 23 24  1  0
 24 25  1  0
 25 26  1  0
  8  2  1  0
 14  9  1  0
 20 13  1  0
 26 21  1  0
  1 27  1  0
  1 28  1  0
  1 29  1  0
  3 30  1  0
  3 31  1  0
  3 32  1  0
  4 33  1  0
  4 34  1  0
  5 35  1  0
  6 36  1  0
  6 37  1  0
  7 38  1  0
  7 39  1  0
 10 40  1  0
 17 41  1  0
 18 42  1  0
 18 43  1  0
 20 44  1  0
 21 45  1  0
 22 46  1  0
 22 47  1  0
 23 48  1  0
 23 49  1  0
 24 50  1  0
 24 51  1  0
 25 52  1  0
 25 53  1  0
 26 54  1  0
 26 55  1  0
M  END
>  <Unnamed: 0>  (245) 
1556

>  <ID>  (245) 
TRAIN_1556

>  <Canonical_Smiles>  (245) 
CC1(C)CC(CCO1)N2NC(=O)C3=C2N=C(O)CSC3C4CCCCC4

>  <Inhibition>  (245) 
19.849556

>  <TDC_conf_true_inhibitor>  (245) 
0

>  <TDC_conf_non_inhibitor>  (245) 
1

>  <split>  (245) 
1

$$$$
245
     RDKit          3D

 46 49  0  0  0  0  0  0  0  0999 V2000
   -3.1509   -3.6009   -1.5161 C   0  0  0  0  0  0  0  0  0  0  0  0
   -3.8629   -2.5763   -0.8371 O   0  0  0  0  0  0  0  0  0  0  0  0
   -3.1402   -1.5193   -0.3475 C   0  0  0  0  0  0  0  0  0  0  0  0
   -1.7853   -1.2908   -0.6031 C   0  0  0  0  0  0  0  0  0  0  0  0
   -1.1229   -0.1767   -0.0565 C   0  0  0  0  0  0  0  0  0  0  0  0
   -1.8438    0.7129    0.7608 C   0  0  0  0  0  0  0  0  0  0  0  0
   -3.1995    0.5039    1.0295 C   0  0  0  0  0  0  0  0  0  0  0  0
   -3.9776    1.3173    1.8121 O   0  0  0  0  0  0  0  0  0  0  0  0
   -3.3277    2.3525    2.5356 C   0  0  0  0  0  0  0  0  0  0  0  0
   -3.8416   -0.6046    0.4544 C   0  0  0  0  0  0  0  0  0  0  0  0
   -5.1675   -0.8421    0.7471 O   0  0  0  0  0  0  0  0  0  0  0  0
   -5.9967   -0.2091   -0.2258 C   0  0  0  0  0  0  0  0  0  0  0  0
    0.3530    0.0356   -0.3561 C   0  0  0  0  0  0  0  0  0  0  0  0
    0.6044    1.3567   -1.0856 C   0  0  0  0  0  0  0  0  0  0  0  0
    2.0709    1.5453   -1.3995 C   0  0  0  0  0  0  0  0  0  0  0  0
    2.4380    2.2505   -2.3354 O   0  0  0  0  0  0  0  0  0  0  0  0
    3.0743    0.9054   -0.5137 C   0  0  0  0  0  0  0  0  0  0  0  0
    4.4382    1.0700   -0.7903 C   0  0  0  0  0  0  0  0  0  0  0  0
    5.3384    0.4465    0.0801 C   0  0  0  0  0  0  0  0  0  0  0  0
    6.7220    0.3060    0.2422 C   0  0  0  0  0  0  0  0  0  0  0  0
    7.7171    0.7954   -0.4932 O   0  0  0  0  0  0  0  0  0  0  0  0
    7.0969   -0.4249    1.2857 N   0  0  0  0  0  0  0  0  0  0  0  0
    5.9045   -0.7737    1.8259 N   0  0  0  0  0  0  0  0  0  0  0  0
    4.8244   -0.2798    1.1432 C   0  0  0  0  0  0  0  0  0  0  0  0
    3.5288   -0.4692    1.4552 N   0  0  0  0  0  0  0  0  0  0  0  0
    2.6730    0.1397    0.5901 C   0  0  0  0  0  0  0  0  0  0  0  0
    1.2088   -0.0265    0.9139 C   0  0  0  0  0  0  0  0  0  0  0  0
   -2.7299   -3.2290   -2.4558 H   0  0  0  0  0  0  0  0  0  0  0  0
   -3.8618   -4.3954   -1.7625 H   0  0  0  0  0  0  0  0  0  0  0  0
   -2.3740   -4.0357   -0.8784 H   0  0  0  0  0  0  0  0  0  0  0  0
   -1.2219   -1.9725   -1.2330 H   0  0  0  0  0  0  0  0  0  0  0  0
   -1.3296    1.5713    1.1804 H   0  0  0  0  0  0  0  0  0  0  0  0
   -2.5519    1.9504    3.1957 H   0  0  0  0  0  0  0  0  0  0  0  0
   -4.0774    2.8432    3.1639 H   0  0  0  0  0  0  0  0  0  0  0  0
   -2.9179    3.1074    1.8568 H   0  0  0  0  0  0  0  0  0  0  0  0
   -5.8161   -0.6116   -1.2285 H   0  0  0  0  0  0  0  0  0  0  0  0
   -7.0383   -0.4160    0.0374 H   0  0  0  0  0  0  0  0  0  0  0  0
   -5.8580    0.8776   -0.2236 H   0  0  0  0  0  0  0  0  0  0  0  0
    0.6887   -0.7747   -1.0208 H   0  0  0  0  0  0  0  0  0  0  0  0
    0.2777    2.2227   -0.4985 H   0  0  0  0  0  0  0  0  0  0  0  0
    0.0509    1.3628   -2.0325 H   0  0  0  0  0  0  0  0  0  0  0  0
    4.7873    1.6539   -1.6369 H   0  0  0  0  0  0  0  0  0  0  0  0
    8.5286    0.4794   -0.0594 H   0  0  0  0  0  0  0  0  0  0  0  0
    5.8843   -1.3492    2.6587 H   0  0  0  0  0  0  0  0  0  0  0  0
    1.0544   -0.9886    1.4189 H   0  0  0  0  0  0  0  0  0  0  0  0
    0.9289    0.7603    1.6253 H   0  0  0  0  0  0  0  0  0  0  0  0
  1  2  1  0
  2  3  1  0
  3  4  2  0
  4  5  1  0
  5  6  2  0
  6  7  1  0
  7  8  1  0
  8  9  1  0
  7 10  2  0
 10 11  1  0
 11 12  1  0
  5 13  1  0
 13 14  1  0
 14 15  1  0
 15 16  2  0
 15 17  1  0
 17 18  2  0
 18 19  1  0
 19 20  1  0
 20 21  1  0
 20 22  2  0
 22 23  1  0
 23 24  1  0
 24 25  1  0
 25 26  2  0
 26 27  1  0
 10  3  1  0
 27 13  1  0
 26 17  1  0
 24 19  2  0
  1 28  1  0
  1 29  1  0
  1 30  1  0
  4 31  1  0
  6 32  1  0
  9 33  1  0
  9 34  1  0
  9 35  1  0
 12 36  1  0
 12 37  1  0
 12 38  1  0
 13 39  1  0
 14 40  1  0
 14 41  1  0
 18 42  1  0
 21 43  1  0
 23 44  1  0
 27 45  1  0
 27 46  1  0
M  END
>  <Unnamed: 0>  (246) 
1564

>  <ID>  (246) 
TRAIN_1564

>  <Canonical_Smiles>  (246) 
COc1cc(cc(OC)c1OC)C2CC(=O)c3cc4c(O)n[nH]c4nc3C2

>  <Inhibition>  (246) 
24.890989

>  <TDC_conf_true_inhibitor>  (246) 
0

>  <TDC_conf_non_inhibitor>  (246) 
1

>  <split>  (246) 
1

$$$$
246
     RDKit          3D

 55 57  0  0  0  0  0  0  0  0999 V2000
   -0.3157   -4.2075   -0.4760 C   0  0  0  0  0  0  0  0  0  0  0  0
   -0.8115   -3.2914    0.6328 C   0  0  0  0  0  0  0  0  0  0  0  0
   -0.1890   -1.9008    0.5866 C   0  0  0  0  0  0  0  0  0  0  0  0
   -0.7165   -0.9512   -0.8300 S   0  0  0  0  0  6  0  0  0  0  0  0
    0.1791   -1.2167   -1.9360 O   0  0  0  0  0  0  0  0  0  0  0  0
   -2.1495   -0.9999   -1.0208 O   0  0  0  0  0  0  0  0  0  0  0  0
   -0.4125    0.7176   -0.4296 C   0  0  0  0  0  0  0  0  0  0  0  0
    0.6863    1.4701   -0.8515 C   0  0  0  0  0  0  0  0  0  0  0  0
    1.8739    1.0687   -1.5809 C   0  0  0  0  0  0  0  0  0  0  0  0
    2.1881    1.5674   -2.6567 O   0  0  0  0  0  0  0  0  0  0  0  0
    2.7962    0.0816   -0.9533 C   0  0  0  0  0  0  0  0  0  0  0  0
    3.4890   -0.8113   -1.7743 C   0  0  0  0  0  0  0  0  0  0  0  0
    4.3562   -1.7473   -1.2070 C   0  0  0  0  0  0  0  0  0  0  0  0
    4.5543   -1.7912    0.1760 C   0  0  0  0  0  0  0  0  0  0  0  0
    5.4270   -2.7555    0.5961 O   0  0  0  0  0  0  0  0  0  0  0  0
    5.6945   -2.8248    1.9910 C   0  0  0  0  0  0  0  0  0  0  0  0
    3.8776   -0.8844    0.9938 C   0  0  0  0  0  0  0  0  0  0  0  0
    3.0012    0.0527    0.4326 C   0  0  0  0  0  0  0  0  0  0  0  0
    0.4429    2.7802   -0.4969 N   0  0  0  0  0  0  0  0  0  0  0  0
    1.1817    3.9299   -0.7367 C   0  0  0  0  0  0  0  0  0  0  0  0
    0.7395    5.0974   -0.2462 C   0  0  0  0  0  0  0  0  0  0  0  0
   -0.4147    5.2296    0.4963 N   0  0  0  0  0  0  0  0  0  0  0  0
   -1.1183    4.1557    0.7291 C   0  0  0  0  0  0  0  0  0  0  0  0
   -0.7224    2.8555    0.2332 C   0  0  0  0  0  0  0  0  0  0  0  0
   -1.2745    1.5885    0.3122 C   0  0  0  0  0  0  0  0  0  0  0  0
   -2.7382    1.1739    1.1475 S   0  0  0  0  0  6  0  0  0  0  0  0
   -2.8794    2.2212    2.1384 O   0  0  0  0  0  0  0  0  0  0  0  0
   -2.5431   -0.1977    1.5608 O   0  0  0  0  0  0  0  0  0  0  0  0
   -4.0371    1.3405   -0.0660 C   0  0  0  0  0  0  0  0  0  0  0  0
   -5.3769    0.8941    0.5046 C   0  0  0  0  0  0  0  0  0  0  0  0
   -6.4943    1.0547   -0.5125 C   0  0  0  0  0  0  0  0  0  0  0  0
   -0.7177   -5.2162   -0.3370 H   0  0  0  0  0  0  0  0  0  0  0  0
    0.7768   -4.2751   -0.4716 H   0  0  0  0  0  0  0  0  0  0  0  0
   -0.6369   -3.8565   -1.4609 H   0  0  0  0  0  0  0  0  0  0  0  0
   -1.9042   -3.2237    0.5874 H   0  0  0  0  0  0  0  0  0  0  0  0
   -0.5605   -3.7510    1.5961 H   0  0  0  0  0  0  0  0  0  0  0  0
   -0.4524   -1.3523    1.4920 H   0  0  0  0  0  0  0  0  0  0  0  0
    0.9012   -1.9699    0.5493 H   0  0  0  0  0  0  0  0  0  0  0  0
    3.3431   -0.7925   -2.8528 H   0  0  0  0  0  0  0  0  0  0  0  0
    4.8839   -2.4482   -1.8503 H   0  0  0  0  0  0  0  0  0  0  0  0
    6.4134   -3.6335    2.1540 H   0  0  0  0  0  0  0  0  0  0  0  0
    4.7873   -3.0665    2.5545 H   0  0  0  0  0  0  0  0  0  0  0  0
    6.1492   -1.8965    2.3523 H   0  0  0  0  0  0  0  0  0  0  0  0
    4.0150   -0.8763    2.0705 H   0  0  0  0  0  0  0  0  0  0  0  0
    2.5048    0.7616    1.0903 H   0  0  0  0  0  0  0  0  0  0  0  0
    2.0892    3.8509   -1.3229 H   0  0  0  0  0  0  0  0  0  0  0  0
    1.2949    6.0150   -0.4255 H   0  0  0  0  0  0  0  0  0  0  0  0
   -2.0435    4.2748    1.3119 H   0  0  0  0  0  0  0  0  0  0  0  0
   -4.0728    2.3972   -0.3519 H   0  0  0  0  0  0  0  0  0  0  0  0
   -3.7818    0.7538   -0.9485 H   0  0  0  0  0  0  0  0  0  0  0  0
   -5.6165    1.4777    1.4011 H   0  0  0  0  0  0  0  0  0  0  0  0
   -5.3197   -0.1553    0.8164 H   0  0  0  0  0  0  0  0  0  0  0  0
   -6.5994    2.1007   -0.8178 H   0  0  0  0  0  0  0  0  0  0  0  0
   -7.4470    0.7285   -0.0840 H   0  0  0  0  0  0  0  0  0  0  0  0
   -6.3002    0.4534   -1.4065 H   0  0  0  0  0  0  0  0  0  0  0  0
  1  2  1  0
  2  3  1  0
  3  4  1  0
  4  5  2  0
  4  6  2  0
  4  7  1  0
  7  8  2  0
  8  9  1  0
  9 10  2  0
  9 11  1  0
 11 12  2  0
 12 13  1  0
 13 14  2  0
 14 15  1  0
 15 16  1  0
 14 17  1  0
 17 18  2  0
  8 19  1  0
 19 20  1  0
 20 21  2  0
 21 22  1  0
 22 23  2  0
 23 24  1  0
 24 25  2  0
 25 26  1  0
 26 27  2  0
 26 28  2  0
 26 29  1  0
 29 30  1  0
 30 31  1  0
 25  7  1  0
 18 11  1  0
 24 19  1  0
  1 32  1  0
  1 33  1  0
  1 34  1  0
  2 35  1  0
  2 36  1  0
  3 37  1  0
  3 38  1  0
 12 39  1  0
 13 40  1  0
 16 41  1  0
 16 42  1  0
 16 43  1  0
 17 44  1  0
 18 45  1  0
 20 46  1  0
 21 47  1  0
 23 48  1  0
 29 49  1  0
 29 50  1  0
 30 51  1  0
 30 52  1  0
 31 53  1  0
 31 54  1  0
 31 55  1  0
M  END
>  <Unnamed: 0>  (247) 
1565

>  <ID>  (247) 
TRAIN_1565

>  <Canonical_Smiles>  (247) 
CCCS(=O)(=O)c1c(C(=O)c2ccc(OC)cc2)n3ccncc3c1S(=O)(=O)CCC

>  <Inhibition>  (247) 
72.953112

>  <TDC_conf_true_inhibitor>  (247) 
1

>  <TDC_conf_non_inhibitor>  (247) 
0

>  <split>  (247) 
1

$$$$
247
     RDKit          3D

 39 42  0  0  0  0  0  0  0  0999 V2000
    6.5285   -0.2870   -1.6365 C   0  0  0  0  0  0  0  0  0  0  0  0
    5.8672    0.2002   -0.4703 O   0  0  0  0  0  0  0  0  0  0  0  0
    4.6219   -0.3258   -0.2773 C   0  0  0  0  0  0  0  0  0  0  0  0
    4.1126   -1.1783   -0.9993 O   0  0  0  0  0  0  0  0  0  0  0  0
    3.9853    0.2448    0.8990 C   0  0  0  0  0  0  0  0  0  0  0  0
    4.9427    0.6169    2.2782 S   0  0  0  0  0  0  0  0  0  0  0  0
    3.5712    0.9126    3.2388 C   0  0  0  0  0  0  0  0  0  0  0  0
    2.4060    0.7656    2.5231 C   0  0  0  0  0  0  0  0  0  0  0  0
    2.6260    0.4399    1.1391 C   0  0  0  0  0  0  0  0  0  0  0  0
    1.6076    0.3060    0.1787 N   0  0  0  0  0  0  0  0  0  0  0  0
    1.7650    0.6810   -1.1360 C   0  0  0  0  0  0  0  0  0  0  0  0
    2.7176    1.2588   -1.6490 O   0  0  0  0  0  0  0  0  0  0  0  0
    0.5089    0.3721   -1.9000 C   0  0  0  0  0  0  0  0  0  0  0  0
   -0.4455    0.0043   -0.8117 C   0  0  0  0  0  0  0  0  0  0  0  0
   -1.7435   -0.2548   -1.0429 C   0  0  0  0  0  0  0  0  0  0  0  0
   -2.7720   -0.6373   -0.1333 C   0  0  0  0  0  0  0  0  0  0  0  0
   -2.6622   -1.5766    0.8710 C   0  0  0  0  0  0  0  0  0  0  0  0
   -3.8790   -1.6697    1.4982 N   0  0  0  0  0  0  0  0  0  0  0  0
   -4.7817   -0.8466    0.8850 C   0  0  0  0  0  0  0  0  0  0  0  0
   -6.0726   -0.7308    1.2481 N   0  0  0  0  0  0  0  0  0  0  0  0
   -6.7558    0.1501    0.4830 C   0  0  0  0  0  0  0  0  0  0  0  0
   -6.2326    0.8812   -0.5758 C   0  0  0  0  0  0  0  0  0  0  0  0
   -4.8870    0.7210   -0.9104 C   0  0  0  0  0  0  0  0  0  0  0  0
   -4.1257   -0.1834   -0.1480 C   0  0  0  0  0  0  0  0  0  0  0  0
    0.2963    0.0316    0.4816 C   0  0  0  0  0  0  0  0  0  0  0  0
   -0.2089   -0.1398    1.5775 O   0  0  0  0  0  0  0  0  0  0  0  0
    7.4973    0.2146   -1.7113 H   0  0  0  0  0  0  0  0  0  0  0  0
    6.7023   -1.3646   -1.5562 H   0  0  0  0  0  0  0  0  0  0  0  0
    5.9482   -0.0528   -2.5347 H   0  0  0  0  0  0  0  0  0  0  0  0
    3.6767    1.1827    4.2811 H   0  0  0  0  0  0  0  0  0  0  0  0
    1.4352    0.9347    2.9754 H   0  0  0  0  0  0  0  0  0  0  0  0
    0.6951   -0.4609   -2.5832 H   0  0  0  0  0  0  0  0  0  0  0  0
    0.1810    1.2651   -2.4396 H   0  0  0  0  0  0  0  0  0  0  0  0
   -2.0823   -0.1532   -2.0744 H   0  0  0  0  0  0  0  0  0  0  0  0
   -1.8287   -2.1765    1.2118 H   0  0  0  0  0  0  0  0  0  0  0  0
   -4.1037   -2.2583    2.2863 H   0  0  0  0  0  0  0  0  0  0  0  0
   -7.8022    0.2642    0.7573 H   0  0  0  0  0  0  0  0  0  0  0  0
   -6.8624    1.5678   -1.1310 H   0  0  0  0  0  0  0  0  0  0  0  0
   -4.4468    1.2810   -1.7278 H   0  0  0  0  0  0  0  0  0  0  0  0
  1  2  1  0
  2  3  1  0
  3  4  2  0
  3  5  1  0
  5  6  1  0
  6  7  1  0
  7  8  2  0
  8  9  1  0
  9 10  1  0
 10 11  1  0
 11 12  2  0
 11 13  1  0
 13 14  1  0
 14 15  2  0
 15 16  1  0
 16 17  2  0
 17 18  1  0
 18 19  1  0
 19 20  2  0
 20 21  1  0
 21 22  2  0
 22 23  1  0
 23 24  2  0
 14 25  1  0
 25 26  2  0
  9  5  2  0
 25 10  1  0
 24 16  1  0
 24 19  1  0
  1 27  1  0
  1 28  1  0
  1 29  1  0
  7 30  1  0
  8 31  1  0
 13 32  1  0
 13 33  1  0
 15 34  1  0
 17 35  1  0
 18 36  1  0
 21 37  1  0
 22 38  1  0
 23 39  1  0
M  END
>  <Unnamed: 0>  (248) 
1576

>  <ID>  (248) 
TRAIN_1576

>  <Canonical_Smiles>  (248) 
COC(=O)c1sccc1N2C(=O)C\C(=C\c3c[nH]c4ncccc34)\C2=O

>  <Inhibition>  (248) 
27.06426

>  <TDC_conf_true_inhibitor>  (248) 
0

>  <TDC_conf_non_inhibitor>  (248) 
1

>  <split>  (248) 
1

$$$$
248
     RDKit          3D

 44 47  0  0  0  0  0  0  0  0999 V2000
   -1.9374   -0.6897   -1.8494 C   0  0  0  0  0  0  0  0  0  0  0  0
   -1.1465   -0.9704   -0.5334 C   0  0  0  0  0  0  0  0  0  0  0  0
   -1.6394   -2.3944   -0.1260 C   0  0  0  0  0  0  0  0  0  0  0  0
    0.3820   -1.0769   -0.8801 C   0  0  0  0  0  0  0  0  0  0  0  0
    1.2994   -2.0936   -0.0888 C   0  0  0  0  0  0  0  0  0  0  0  0
    2.6562   -1.3775    0.1775 C   0  0  0  0  0  0  0  0  0  0  0  0
    2.1767    0.0531    0.3112 C   0  0  0  0  0  0  0  0  0  0  0  0
    1.5652    0.1963    1.7389 C   0  0  0  0  0  0  0  0  0  0  0  0
    2.9895    1.2054    0.1376 O   0  0  0  0  0  0  0  0  0  0  0  0
    2.0437    2.1746   -0.2288 C   0  0  0  0  0  0  0  0  0  0  0  0
    2.1883    3.3711   -0.0481 O   0  0  0  0  0  0  0  0  0  0  0  0
    0.9344    1.5334   -0.7744 N   0  0  0  0  0  0  0  0  0  0  0  0
   -0.3979    2.0596   -0.8199 C   0  0  0  0  0  0  0  0  0  0  0  0
   -1.2303    1.5068    0.3165 C   0  0  0  0  0  0  0  0  0  0  0  0
   -1.6648    2.4491    1.2780 C   0  0  0  0  0  0  0  0  0  0  0  0
   -2.3931    2.0659    2.3973 C   0  0  0  0  0  0  0  0  0  0  0  0
   -2.7005    0.7298    2.5786 C   0  0  0  0  0  0  0  0  0  0  0  0
   -2.2815   -0.2183    1.6406 C   0  0  0  0  0  0  0  0  0  0  0  0
   -1.5358    0.1268    0.4881 C   0  0  0  0  0  0  0  0  0  0  0  0
    1.2777    0.1689   -0.9325 C   0  0  0  0  0  0  0  0  0  0  0  0
    2.0577    0.0960   -2.2967 C   0  0  0  0  0  0  0  0  0  0  0  0
   -1.9199   -1.5628   -2.5143 H   0  0  0  0  0  0  0  0  0  0  0  0
   -2.9899   -0.4596   -1.6445 H   0  0  0  0  0  0  0  0  0  0  0  0
   -1.5228    0.1291   -2.4365 H   0  0  0  0  0  0  0  0  0  0  0  0
   -2.7347   -2.4441   -0.0806 H   0  0  0  0  0  0  0  0  0  0  0  0
   -1.2575   -2.7095    0.8501 H   0  0  0  0  0  0  0  0  0  0  0  0
   -1.3208   -3.1471   -0.8579 H   0  0  0  0  0  0  0  0  0  0  0  0
    0.3713   -1.5174   -1.8903 H   0  0  0  0  0  0  0  0  0  0  0  0
    1.4615   -3.0109   -0.6657 H   0  0  0  0  0  0  0  0  0  0  0  0
    0.8541   -2.3876    0.8651 H   0  0  0  0  0  0  0  0  0  0  0  0
    3.1439   -1.7620    1.0795 H   0  0  0  0  0  0  0  0  0  0  0  0
    3.3692   -1.5133   -0.6411 H   0  0  0  0  0  0  0  0  0  0  0  0
    0.7916   -0.5379    1.9692 H   0  0  0  0  0  0  0  0  0  0  0  0
    1.1515    1.1905    1.9343 H   0  0  0  0  0  0  0  0  0  0  0  0
    2.3628    0.0719    2.4826 H   0  0  0  0  0  0  0  0  0  0  0  0
   -0.8429    1.8603   -1.7938 H   0  0  0  0  0  0  0  0  0  0  0  0
   -0.3301    3.1518   -0.7484 H   0  0  0  0  0  0  0  0  0  0  0  0
   -1.4158    3.5038    1.1635 H   0  0  0  0  0  0  0  0  0  0  0  0
   -2.7110    2.8078    3.1243 H   0  0  0  0  0  0  0  0  0  0  0  0
   -3.2700    0.4160    3.4496 H   0  0  0  0  0  0  0  0  0  0  0  0
   -2.5706   -1.2447    1.8485 H   0  0  0  0  0  0  0  0  0  0  0  0
    2.9062    0.7879   -2.3441 H   0  0  0  0  0  0  0  0  0  0  0  0
    2.4468   -0.9039   -2.5161 H   0  0  0  0  0  0  0  0  0  0  0  0
    1.3833    0.3657   -3.1196 H   0  0  0  0  0  0  0  0  0  0  0  0
  1  2  1  0
  2  3  1  0
  2  4  1  0
  4  5  1  0
  5  6  1  0
  6  7  1  0
  7  8  1  0
  7  9  1  0
  9 10  1  0
 10 11  2  0
 10 12  1  0
 12 13  1  0
 13 14  1  0
 14 15  2  0
 15 16  1  0
 16 17  2  0
 17 18  1  0
 18 19  2  0
 12 20  1  0
 20 21  1  0
 19  2  1  0
 20  4  1  0
 20  7  1  0
 19 14  1  0
  1 22  1  0
  1 23  1  0
  1 24  1  0
  3 25  1  0
  3 26  1  0
  3 27  1  0
  4 28  1  0
  5 29  1  0
  5 30  1  0
  6 31  1  0
  6 32  1  0
  8 33  1  0
  8 34  1  0
  8 35  1  0
 13 36  1  0
 13 37  1  0
 15 38  1  0
 16 39  1  0
 17 40  1  0
 18 41  1  0
 21 42  1  0
 21 43  1  0
 21 44  1  0
M  END
>  <Unnamed: 0>  (249) 
1579

>  <ID>  (249) 
TRAIN_1579

>  <Canonical_Smiles>  (249) 
CC1(C)C2CCC3(C)OC(=O)N(Cc4ccccc14)C23C

>  <Inhibition>  (249) 
33.243577

>  <TDC_conf_true_inhibitor>  (249) 
1

>  <TDC_conf_non_inhibitor>  (249) 
0

>  <split>  (249) 
1

$$$$
249
     RDKit          3D

 27 29  0  0  0  0  0  0  0  0999 V2000
   -7.4378   -0.6271    0.3562 Br  0  0  0  0  0  0  0  0  0  0  0  0
   -5.6198   -0.1918    0.2048 C   0  0  0  0  0  0  0  0  0  0  0  0
   -4.6243   -1.1194    0.3778 C   0  0  0  0  0  0  0  0  0  0  0  0
   -3.3093   -0.8281    0.2735 N   0  0  0  0  0  0  0  0  0  0  0  0
   -2.9775    0.4421   -0.0154 C   0  0  0  0  0  0  0  0  0  0  0  0
   -1.6452    0.8344   -0.1424 N   0  0  0  0  0  0  0  0  0  0  0  0
   -0.5039    0.1310   -0.0231 C   0  0  0  0  0  0  0  0  0  0  0  0
   -0.2901   -1.2278    0.2685 C   0  0  0  0  0  0  0  0  0  0  0  0
    1.0064   -1.5497    0.2993 N   0  0  0  0  0  0  0  0  0  0  0  0
    1.6503   -0.3771    0.0222 N   0  0  0  0  0  0  0  0  0  0  0  0
    0.7521    0.6569   -0.1771 C   0  0  0  0  0  0  0  0  0  0  0  0
    3.0833   -0.2706   -0.0451 C   0  0  0  0  0  0  0  0  0  0  0  0
    3.8263   -1.3791    0.1753 N   0  0  0  0  0  0  0  0  0  0  0  0
    5.1615   -1.2388    0.1035 C   0  0  0  0  0  0  0  0  0  0  0  0
    5.7846   -0.0470   -0.1771 C   0  0  0  0  0  0  0  0  0  0  0  0
    4.9508    1.0249   -0.3868 C   0  0  0  0  0  0  0  0  0  0  0  0
    3.6077    0.9479   -0.3286 N   0  0  0  0  0  0  0  0  0  0  0  0
   -3.8856    1.4170   -0.2014 N   0  0  0  0  0  0  0  0  0  0  0  0
   -5.1895    1.0780   -0.0870 C   0  0  0  0  0  0  0  0  0  0  0  0
   -4.8441   -2.1568    0.6122 H   0  0  0  0  0  0  0  0  0  0  0  0
   -1.6355    1.8235   -0.3597 H   0  0  0  0  0  0  0  0  0  0  0  0
   -1.0196   -2.0034    0.4610 H   0  0  0  0  0  0  0  0  0  0  0  0
    1.1047    1.6518   -0.4062 H   0  0  0  0  0  0  0  0  0  0  0  0
    5.7321   -2.1451    0.2848 H   0  0  0  0  0  0  0  0  0  0  0  0
    6.8607    0.0405   -0.2294 H   0  0  0  0  0  0  0  0  0  0  0  0
    5.3501    2.0092   -0.6150 H   0  0  0  0  0  0  0  0  0  0  0  0
   -5.8885    1.8941   -0.2446 H   0  0  0  0  0  0  0  0  0  0  0  0
  1  2  1  0
  2  3  2  0
  3  4  1  0
  4  5  2  0
  5  6  1  0
  6  7  1  0
  7  8  1  0
  8  9  2  0
  9 10  1  0
 10 11  1  0
 10 12  1  0
 12 13  2  0
 13 14  1  0
 14 15  2  0
 15 16  1  0
 16 17  2  0
  5 18  1  0
 18 19  2  0
 19  2  1  0
 11  7  2  0
 17 12  1  0
  3 20  1  0
  6 21  1  0
  8 22  1  0
 11 23  1  0
 14 24  1  0
 15 25  1  0
 16 26  1  0
 19 27  1  0
M  END
>  <Unnamed: 0>  (250) 
1584

>  <ID>  (250) 
TRAIN_1584

>  <Canonical_Smiles>  (250) 
Brc1cnc(Nc2cnn(c2)c3ncccn3)nc1

>  <Inhibition>  (250) 
31.224919

>  <TDC_conf_true_inhibitor>  (250) 
0

>  <TDC_conf_non_inhibitor>  (250) 
1

>  <split>  (250) 
1

$$$$
250
     RDKit          3D

 26 27  0  0  0  0  0  0  0  0999 V2000
   -2.2142    2.3350    1.2337 C   0  0  0  0  0  0  0  0  0  0  0  0
   -1.7445    1.1348    0.5010 C   0  0  0  0  0  0  0  0  0  0  0  0
   -0.6280    1.1907   -0.2356 N   0  0  0  0  0  0  0  0  0  0  0  0
   -0.4908   -0.0541   -0.7329 N   0  0  0  0  0  0  0  0  0  0  0  0
    0.6428   -0.3356   -1.5979 C   0  0  0  0  0  0  0  0  0  0  0  0
    1.8106   -0.9816   -0.8643 C   0  0  0  0  0  0  0  0  0  0  0  0
    2.5063   -0.0506    0.0498 C   0  0  0  0  0  0  0  0  0  0  0  0
    3.2922    0.9765   -0.3978 N   0  0  0  0  0  0  0  0  0  0  0  0
    3.7529    1.5891    0.6838 N   0  0  0  0  0  0  0  0  0  0  0  0
    3.2228    0.9109    1.7106 N   0  0  0  0  0  0  0  0  0  0  0  0
    2.4748   -0.1567    1.3857 N   0  0  0  0  0  0  0  0  0  0  0  0
   -1.5103   -0.9046   -0.3745 C   0  0  0  0  0  0  0  0  0  0  0  0
   -1.6051   -2.3136   -0.8271 C   0  0  0  0  0  0  0  0  0  0  0  0
   -2.3227   -0.1478    0.4383 C   0  0  0  0  0  0  0  0  0  0  0  0
   -3.9003   -0.6675    1.3038 Br  0  0  0  0  0  0  0  0  0  0  0  0
   -1.5376    3.1842    1.0906 H   0  0  0  0  0  0  0  0  0  0  0  0
   -3.2069    2.6343    0.8828 H   0  0  0  0  0  0  0  0  0  0  0  0
   -2.2719    2.1304    2.3075 H   0  0  0  0  0  0  0  0  0  0  0  0
    0.2837   -1.0002   -2.3915 H   0  0  0  0  0  0  0  0  0  0  0  0
    0.9377    0.6055   -2.0784 H   0  0  0  0  0  0  0  0  0  0  0  0
    1.4762   -1.8679   -0.3122 H   0  0  0  0  0  0  0  0  0  0  0  0
    2.5368   -1.3351   -1.6067 H   0  0  0  0  0  0  0  0  0  0  0  0
    3.3886    1.1848    2.6746 H   0  0  0  0  0  0  0  0  0  0  0  0
   -0.7191   -2.8804   -0.5259 H   0  0  0  0  0  0  0  0  0  0  0  0
   -1.6964   -2.3628   -1.9169 H   0  0  0  0  0  0  0  0  0  0  0  0
   -2.4775   -2.8175   -0.4006 H   0  0  0  0  0  0  0  0  0  0  0  0
  1  2  1  0
  2  3  2  0
  3  4  1  0
  4  5  1  0
  5  6  1  0
  6  7  1  0
  7  8  1  0
  8  9  2  0
  9 10  1  0
 10 11  1  0
  4 12  1  0
 12 13  1  0
 12 14  2  0
 14 15  1  0
 14  2  1  0
 11  7  2  0
  1 16  1  0
  1 17  1  0
  1 18  1  0
  5 19  1  0
  5 20  1  0
  6 21  1  0
  6 22  1  0
 10 23  1  0
 13 24  1  0
 13 25  1  0
 13 26  1  0
M  END
>  <Unnamed: 0>  (251) 
1587

>  <ID>  (251) 
TRAIN_1587

>  <Canonical_Smiles>  (251) 
Cc1nn(CCc2nn[nH]n2)c(C)c1Br

>  <Inhibition>  (251) 
44.914268

>  <TDC_conf_true_inhibitor>  (251) 
0

>  <TDC_conf_non_inhibitor>  (251) 
1

>  <split>  (251) 
1

$$$$
251
     RDKit          3D

 57 60  0  0  0  0  0  0  0  0999 V2000
    2.9128   -3.0413    2.7827 C   0  0  0  0  0  0  0  0  0  0  0  0
    2.8795   -1.9920    1.7102 C   0  0  0  0  0  0  0  0  0  0  0  0
    2.6275   -0.6542    2.0399 C   0  0  0  0  0  0  0  0  0  0  0  0
    2.6317    0.3323    1.0517 C   0  0  0  0  0  0  0  0  0  0  0  0
    2.8711   -0.0200   -0.2779 C   0  0  0  0  0  0  0  0  0  0  0  0
    3.1793   -1.3430   -0.6102 C   0  0  0  0  0  0  0  0  0  0  0  0
    3.1744   -2.3257    0.3820 C   0  0  0  0  0  0  0  0  0  0  0  0
    2.9668    1.2527   -1.5177 S   0  0  0  0  0  6  0  0  0  0  0  0
    3.3423    2.4673   -0.8328 O   0  0  0  0  0  0  0  0  0  0  0  0
    3.8350    0.7389   -2.5614 O   0  0  0  0  0  0  0  0  0  0  0  0
    1.4225    1.3967   -2.2178 N   0  0  0  0  0  0  0  0  0  0  0  0
    0.9545    0.1417   -2.9148 C   0  0  0  0  0  0  0  0  0  0  0  0
   -0.0450   -0.4941   -1.9348 C   0  0  0  0  0  0  0  0  0  0  0  0
   -0.2989    0.5403   -0.9367 N   0  0  0  0  0  0  0  0  0  0  0  0
    0.2049    1.7986   -1.4543 C   0  0  0  0  0  0  0  0  0  0  0  0
   -0.0140    3.1387   -0.7704 C   0  0  0  0  0  0  0  0  0  0  0  0
    0.9671    4.1436   -0.7673 C   0  0  0  0  0  0  0  0  0  0  0  0
    0.7767    5.3760   -0.1285 C   0  0  0  0  0  0  0  0  0  0  0  0
   -0.4377    5.6617    0.4743 C   0  0  0  0  0  0  0  0  0  0  0  0
   -0.6786    7.1746    1.2538 Cl  0  0  0  0  0  0  0  0  0  0  0  0
   -1.4769    4.7485    0.3918 C   0  0  0  0  0  0  0  0  0  0  0  0
   -1.2775    3.5192   -0.2544 C   0  0  0  0  0  0  0  0  0  0  0  0
   -2.7136    2.5769   -0.5067 Cl  0  0  0  0  0  0  0  0  0  0  0  0
   -0.5291    0.2723    0.4009 C   0  0  0  0  0  0  0  0  0  0  0  0
   -0.3855    1.1204    1.2842 O   0  0  0  0  0  0  0  0  0  0  0  0
   -0.9363   -1.1613    0.7949 C   0  0  0  0  0  0  0  0  0  0  0  0
   -2.0930   -1.6511    0.0164 N   0  0  0  0  0  0  0  0  0  0  0  0
   -2.2250   -3.1160    0.1666 C   0  0  0  0  0  0  0  0  0  0  0  0
   -3.6384   -3.5931   -0.1953 C   0  0  0  0  0  0  0  0  0  0  0  0
   -4.6404   -3.0772    0.6897 O   0  0  0  0  0  0  0  0  0  0  0  0
   -4.2740   -1.8294    1.2922 C   0  0  0  0  0  0  0  0  0  0  0  0
   -3.3533   -0.9740    0.4056 C   0  0  0  0  0  0  0  0  0  0  0  0
    2.2099   -2.7991    3.5867 H   0  0  0  0  0  0  0  0  0  0  0  0
    2.6226   -4.0180    2.3816 H   0  0  0  0  0  0  0  0  0  0  0  0
    3.9206   -3.1157    3.2026 H   0  0  0  0  0  0  0  0  0  0  0  0
    2.4308   -0.3666    3.0714 H   0  0  0  0  0  0  0  0  0  0  0  0
    2.4404    1.3678    1.3302 H   0  0  0  0  0  0  0  0  0  0  0  0
    3.4459   -1.6150   -1.6290 H   0  0  0  0  0  0  0  0  0  0  0  0
    3.4218   -3.3520    0.1170 H   0  0  0  0  0  0  0  0  0  0  0  0
    0.4541    0.4354   -3.8455 H   0  0  0  0  0  0  0  0  0  0  0  0
    1.7559   -0.5476   -3.1896 H   0  0  0  0  0  0  0  0  0  0  0  0
    0.3714   -1.3972   -1.4843 H   0  0  0  0  0  0  0  0  0  0  0  0
   -0.9816   -0.7453   -2.4422 H   0  0  0  0  0  0  0  0  0  0  0  0
   -0.4894    1.9824   -2.2988 H   0  0  0  0  0  0  0  0  0  0  0  0
    1.9013    4.0196   -1.3024 H   0  0  0  0  0  0  0  0  0  0  0  0
    1.5820    6.1068   -0.1271 H   0  0  0  0  0  0  0  0  0  0  0  0
   -2.4516    4.9997    0.8018 H   0  0  0  0  0  0  0  0  0  0  0  0
   -0.0615   -1.8009    0.6353 H   0  0  0  0  0  0  0  0  0  0  0  0
   -1.1543   -1.1812    1.8703 H   0  0  0  0  0  0  0  0  0  0  0  0
   -1.4935   -3.6076   -0.4842 H   0  0  0  0  0  0  0  0  0  0  0  0
   -2.0122   -3.4168    1.2011 H   0  0  0  0  0  0  0  0  0  0  0  0
   -3.6909   -4.6856   -0.1479 H   0  0  0  0  0  0  0  0  0  0  0  0
   -3.9003   -3.2989   -1.2185 H   0  0  0  0  0  0  0  0  0  0  0  0
   -3.7942   -2.0426    2.2547 H   0  0  0  0  0  0  0  0  0  0  0  0
   -5.1997   -1.2854    1.5058 H   0  0  0  0  0  0  0  0  0  0  0  0
   -3.8877   -0.7487   -0.5256 H   0  0  0  0  0  0  0  0  0  0  0  0
   -3.1691   -0.0157    0.9013 H   0  0  0  0  0  0  0  0  0  0  0  0
  1  2  1  0
  2  3  2  0
  3  4  1  0
  4  5  2  0
  5  6  1  0
  6  7  2  0
  5  8  1  0
  8  9  2  0
  8 10  2  0
  8 11  1  0
 11 12  1  0
 12 13  1  0
 13 14  1  0
 14 15  1  0
 15 16  1  0
 16 17  2  0
 17 18  1  0
 18 19  2  0
 19 20  1  0
 19 21  1  0
 21 22  2  0
 22 23  1  0
 14 24  1  0
 24 25  2  0
 24 26  1  0
 26 27  1  0
 27 28  1  0
 28 29  1  0
 29 30  1  0
 30 31  1  0
 31 32  1  0
  7  2  1  0
 15 11  1  0
 22 16  1  0
 32 27  1  0
  1 33  1  0
  1 34  1  0
  1 35  1  0
  3 36  1  0
  4 37  1  0
  6 38  1  0
  7 39  1  0
 12 40  1  0
 12 41  1  0
 13 42  1  0
 13 43  1  0
 15 44  1  0
 17 45  1  0
 18 46  1  0
 21 47  1  0
 26 48  1  0
 26 49  1  0
 28 50  1  0
 28 51  1  0
 29 52  1  0
 29 53  1  0
 31 54  1  0
 31 55  1  0
 32 56  1  0
 32 57  1  0
M  END
>  <Unnamed: 0>  (252) 
1588

>  <ID>  (252) 
TRAIN_1588

>  <Canonical_Smiles>  (252) 
Cc1ccc(cc1)S(=O)(=O)N2CCN(C2c3ccc(Cl)cc3Cl)C(=O)CN4CCOCC4

>  <Inhibition>  (252) 
81.055539

>  <TDC_conf_true_inhibitor>  (252) 
1

>  <TDC_conf_non_inhibitor>  (252) 
0

>  <split>  (252) 
1

$$$$
252
     RDKit          3D

 38 40  0  0  0  0  0  0  0  0999 V2000
    1.4018   -0.9228   -2.3216 C   0  0  0  0  0  0  0  0  0  0  0  0
    1.7272   -0.3432   -0.9534 C   0  0  0  0  0  0  0  0  0  0  0  0
    3.0171   -0.2847   -0.5032 C   0  0  0  0  0  0  0  0  0  0  0  0
    4.1343   -0.9781   -1.2014 C   0  0  0  0  0  0  0  0  0  0  0  0
    3.9769   -1.7992   -2.0975 O   0  0  0  0  0  0  0  0  0  0  0  0
    5.3958   -0.6790   -0.7735 O   0  0  0  0  0  0  0  0  0  0  0  0
    5.6752    0.1015    0.3611 C   0  0  0  0  0  0  0  0  0  0  0  0
    4.7194    0.6449    1.1142 C   0  0  0  0  0  0  0  0  0  0  0  0
    3.3114    0.4807    0.7426 C   0  0  0  0  0  0  0  0  0  0  0  0
    2.4529    1.0108    1.4441 O   0  0  0  0  0  0  0  0  0  0  0  0
    7.1353    0.2414    0.6540 C   0  0  0  0  0  0  0  0  0  0  0  0
    0.6481    0.2198   -0.2513 N   0  0  0  0  0  0  0  0  0  0  0  0
   -0.6865   -0.0257   -0.2736 C   0  0  0  0  0  0  0  0  0  0  0  0
   -1.7161    0.6556    0.3334 C   0  0  0  0  0  0  0  0  0  0  0  0
   -2.9102   -0.0519    0.0140 C   0  0  0  0  0  0  0  0  0  0  0  0
   -2.6193   -1.1305   -0.7345 N   0  0  0  0  0  0  0  0  0  0  0  0
   -1.2843   -1.0979   -0.8702 N   0  0  0  0  0  0  0  0  0  0  0  0
   -4.2914    0.2669    0.4021 C   0  0  0  0  0  0  0  0  0  0  0  0
   -5.3532   -0.5551   -0.0090 C   0  0  0  0  0  0  0  0  0  0  0  0
   -6.6715   -0.2637    0.3528 C   0  0  0  0  0  0  0  0  0  0  0  0
   -6.9481    0.8560    1.1324 C   0  0  0  0  0  0  0  0  0  0  0  0
   -5.9083    1.6832    1.5497 C   0  0  0  0  0  0  0  0  0  0  0  0
   -4.5888    1.3913    1.1874 C   0  0  0  0  0  0  0  0  0  0  0  0
    0.4971   -0.4726   -2.7443 H   0  0  0  0  0  0  0  0  0  0  0  0
    2.1745   -0.6922   -3.0616 H   0  0  0  0  0  0  0  0  0  0  0  0
    1.2604   -2.0061   -2.2621 H   0  0  0  0  0  0  0  0  0  0  0  0
    4.9268    1.2351    1.9989 H   0  0  0  0  0  0  0  0  0  0  0  0
    7.6438    0.7256   -0.1858 H   0  0  0  0  0  0  0  0  0  0  0  0
    7.3188    0.8418    1.5511 H   0  0  0  0  0  0  0  0  0  0  0  0
    7.5857   -0.7441    0.8096 H   0  0  0  0  0  0  0  0  0  0  0  0
    0.9658    0.8118    0.5326 H   0  0  0  0  0  0  0  0  0  0  0  0
   -1.6161    1.5542    0.9233 H   0  0  0  0  0  0  0  0  0  0  0  0
   -0.8405   -1.8577   -1.3681 H   0  0  0  0  0  0  0  0  0  0  0  0
   -5.1573   -1.4351   -0.6191 H   0  0  0  0  0  0  0  0  0  0  0  0
   -7.4779   -0.9135    0.0236 H   0  0  0  0  0  0  0  0  0  0  0  0
   -7.9728    1.0833    1.4142 H   0  0  0  0  0  0  0  0  0  0  0  0
   -6.1220    2.5580    2.1584 H   0  0  0  0  0  0  0  0  0  0  0  0
   -3.8042    2.0589    1.5310 H   0  0  0  0  0  0  0  0  0  0  0  0
  1  2  1  0
  2  3  2  0
  3  4  1  0
  4  5  2  0
  4  6  1  0
  6  7  1  0
  7  8  2  0
  8  9  1  0
  9 10  2  0
  7 11  1  0
  2 12  1  0
 12 13  1  0
 13 14  2  0
 14 15  1  0
 15 16  2  0
 16 17  1  0
 15 18  1  0
 18 19  2  0
 19 20  1  0
 20 21  2  0
 21 22  1  0
 22 23  2  0
  9  3  1  0
 17 13  1  0
 23 18  1  0
  1 24  1  0
  1 25  1  0
  1 26  1  0
  8 27  1  0
 11 28  1  0
 11 29  1  0
 11 30  1  0
 12 31  1  0
 14 32  1  0
 17 33  1  0
 19 34  1  0
 20 35  1  0
 21 36  1  0
 22 37  1  0
 23 38  1  0
M  END
>  <Unnamed: 0>  (253) 
1590

>  <ID>  (253) 
TRAIN_1590

>  <Canonical_Smiles>  (253) 
C\C(=C\1/C(=O)OC(=CC1=O)C)\Nc2cc(n[nH]2)c3ccccc3

>  <Inhibition>  (253) 
1.304658

>  <TDC_conf_true_inhibitor>  (253) 
0

>  <TDC_conf_non_inhibitor>  (253) 
1

>  <split>  (253) 
1

$$$$
253
     RDKit          3D

 42 43  0  0  0  0  0  0  0  0999 V2000
    0.9397    3.7673    2.0422 C   0  0  0  0  0  0  0  0  0  0  0  0
   -0.2726    3.4779    1.2918 N   0  0  0  0  0  0  0  0  0  0  0  0
   -1.5191    3.9894    1.8403 C   0  0  0  0  0  0  0  0  0  0  0  0
   -0.3470    2.1707    0.7956 C   0  0  0  0  0  0  0  0  0  0  0  0
   -1.5332    1.6789    0.4721 N   0  0  0  0  0  0  0  0  0  0  0  0
   -1.5199    0.4420   -0.0094 C   0  0  0  0  0  0  0  0  0  0  0  0
   -2.7829   -0.0577   -0.3387 O   0  0  0  0  0  0  0  0  0  0  0  0
   -2.7101   -1.3701   -0.8490 N   0  0  0  0  0  0  0  0  0  0  0  0
   -3.8901   -1.8204   -1.1455 C   0  0  0  0  0  0  0  0  0  0  0  0
   -5.1661   -1.0364   -0.9641 C   0  0  0  0  0  0  0  0  0  0  0  0
   -4.0028   -3.2142   -1.7051 C   0  0  0  0  0  0  0  0  0  0  0  0
   -0.4427   -0.3154   -0.1836 N   0  0  0  0  0  0  0  0  0  0  0  0
    0.7056    0.2465    0.1509 C   0  0  0  0  0  0  0  0  0  0  0  0
    0.7817    1.4807    0.6436 N   0  0  0  0  0  0  0  0  0  0  0  0
    1.8712   -0.4851    0.0068 N   0  0  0  0  0  0  0  0  0  0  0  0
    1.7777   -1.8192   -0.5725 C   0  0  0  0  0  0  0  0  0  0  0  0
    3.0777   -2.5804   -0.3215 C   0  0  0  0  0  0  0  0  0  0  0  0
    4.2944   -1.8606   -0.9018 C   0  0  0  0  0  0  0  0  0  0  0  0
    4.0782   -0.3572   -1.0617 C   0  0  0  0  0  0  0  0  0  0  0  0
    3.1494    0.2161    0.0076 C   0  0  0  0  0  0  0  0  0  0  0  0
    1.0192    3.1352    2.9344 H   0  0  0  0  0  0  0  0  0  0  0  0
    1.8377    3.6387    1.4267 H   0  0  0  0  0  0  0  0  0  0  0  0
    0.9413    4.8121    2.3732 H   0  0  0  0  0  0  0  0  0  0  0  0
   -1.3895    5.0240    2.1777 H   0  0  0  0  0  0  0  0  0  0  0  0
   -2.3149    4.0091    1.0869 H   0  0  0  0  0  0  0  0  0  0  0  0
   -1.8507    3.3973    2.7012 H   0  0  0  0  0  0  0  0  0  0  0  0
   -5.2940   -0.7809    0.0913 H   0  0  0  0  0  0  0  0  0  0  0  0
   -6.0263   -1.6281   -1.2885 H   0  0  0  0  0  0  0  0  0  0  0  0
   -5.1244   -0.1217   -1.5618 H   0  0  0  0  0  0  0  0  0  0  0  0
   -4.6225   -3.8211   -1.0395 H   0  0  0  0  0  0  0  0  0  0  0  0
   -4.4701   -3.1706   -2.6926 H   0  0  0  0  0  0  0  0  0  0  0  0
   -3.0162   -3.6767   -1.7962 H   0  0  0  0  0  0  0  0  0  0  0  0
    0.9629   -2.3931   -0.1138 H   0  0  0  0  0  0  0  0  0  0  0  0
    1.5797   -1.7541   -1.6497 H   0  0  0  0  0  0  0  0  0  0  0  0
    3.2193   -2.6945    0.7615 H   0  0  0  0  0  0  0  0  0  0  0  0
    3.0125   -3.5930   -0.7353 H   0  0  0  0  0  0  0  0  0  0  0  0
    4.5488   -2.2871   -1.8795 H   0  0  0  0  0  0  0  0  0  0  0  0
    5.1588   -2.0467   -0.2530 H   0  0  0  0  0  0  0  0  0  0  0  0
    5.0442    0.1600   -1.0426 H   0  0  0  0  0  0  0  0  0  0  0  0
    3.6417   -0.1657   -2.0509 H   0  0  0  0  0  0  0  0  0  0  0  0
    3.0426    1.2888   -0.1938 H   0  0  0  0  0  0  0  0  0  0  0  0
    3.6111    0.1154    0.9971 H   0  0  0  0  0  0  0  0  0  0  0  0
  1  2  1  0
  2  3  1  0
  2  4  1  0
  4  5  2  0
  5  6  1  0
  6  7  1  0
  7  8  1  0
  8  9  2  3
  9 10  1  0
  9 11  1  0
  6 12  2  0
 12 13  1  0
 13 14  2  0
 13 15  1  0
 15 16  1  0
 16 17  1  0
 17 18  1  0
 18 19  1  0
 19 20  1  0
 14  4  1  0
 20 15  1  0
  1 21  1  0
  1 22  1  0
  1 23  1  0
  3 24  1  0
  3 25  1  0
  3 26  1  0
 10 27  1  0
 10 28  1  0
 10 29  1  0
 11 30  1  0
 11 31  1  0
 11 32  1  0
 16 33  1  0
 16 34  1  0
 17 35  1  0
 17 36  1  0
 18 37  1  0
 18 38  1  0
 19 39  1  0
 19 40  1  0
 20 41  1  0
 20 42  1  0
M  END
>  <Unnamed: 0>  (254) 
1592

>  <ID>  (254) 
TRAIN_1592

>  <Canonical_Smiles>  (254) 
CN(C)c1nc(ON=C(C)C)nc(n1)N2CCCCC2

>  <Inhibition>  (254) 
0.5

>  <TDC_conf_true_inhibitor>  (254) 
0

>  <TDC_conf_non_inhibitor>  (254) 
1

>  <split>  (254) 
1

$$$$
254
     RDKit          3D

 32 34  0  0  0  0  0  0  0  0999 V2000
   -2.1490    0.4577    2.6398 C   0  0  0  0  0  0  0  0  0  0  0  0
   -1.3134    0.3795    1.4063 C   0  0  0  0  0  0  0  0  0  0  0  0
   -0.0420    0.1108    1.4404 N   0  0  0  0  0  0  0  0  0  0  0  0
    0.4313    0.1607    0.1186 N   0  0  0  0  0  0  0  0  0  0  0  0
   -0.6000    0.4297   -0.7811 C   0  0  0  0  0  0  0  0  0  0  0  0
   -0.6405    0.5026   -2.0674 N   0  0  0  0  0  0  0  0  0  0  0  0
   -1.8646    0.6488    0.0256 C   0  0  0  0  0  0  0  0  0  0  0  0
   -2.9803   -0.2869   -0.4367 C   0  0  0  0  0  0  0  0  0  0  0  0
   -2.8818   -1.5666    0.2194 O   0  0  0  0  0  0  0  0  0  0  0  0
   -4.3480    0.3735   -0.2378 C   0  0  0  0  0  0  0  0  0  0  0  0
   -4.4699    1.4918   -0.9836 F   0  0  0  0  0  0  0  0  0  0  0  0
   -5.3339   -0.4774   -0.6068 F   0  0  0  0  0  0  0  0  0  0  0  0
   -4.5625    0.7134    1.0501 F   0  0  0  0  0  0  0  0  0  0  0  0
    1.8149    0.0092   -0.0948 C   0  0  0  0  0  0  0  0  0  0  0  0
    2.4774    0.7575   -1.2335 C   0  0  0  0  0  0  0  0  0  0  0  0
    3.7877    0.6009   -1.4580 C   0  0  0  0  0  0  0  0  0  0  0  0
    4.5213   -0.2498   -0.6147 C   0  0  0  0  0  0  0  0  0  0  0  0
    5.7872   -0.6053   -0.5797 N   0  0  0  0  0  0  0  0  0  0  0  0
    5.9515   -1.4555    0.4947 N   0  0  0  0  0  0  0  0  0  0  0  0
    4.7803   -1.5877    1.0788 C   0  0  0  0  0  0  0  0  0  0  0  0
    3.8397   -0.8509    0.4179 N   0  0  0  0  0  0  0  0  0  0  0  0
    2.5185   -0.7540    0.7163 N   0  0  0  0  0  0  0  0  0  0  0  0
   -1.5198    0.3666    3.5294 H   0  0  0  0  0  0  0  0  0  0  0  0
   -2.6655    1.4204    2.6679 H   0  0  0  0  0  0  0  0  0  0  0  0
   -2.8839   -0.3501    2.6448 H   0  0  0  0  0  0  0  0  0  0  0  0
    0.2614    0.2549   -2.4824 H   0  0  0  0  0  0  0  0  0  0  0  0
   -2.1352    1.7063   -0.0685 H   0  0  0  0  0  0  0  0  0  0  0  0
   -2.8899   -0.4976   -1.5081 H   0  0  0  0  0  0  0  0  0  0  0  0
   -3.6379   -2.1092   -0.0793 H   0  0  0  0  0  0  0  0  0  0  0  0
    1.8905    1.4553   -1.8160 H   0  0  0  0  0  0  0  0  0  0  0  0
    4.3050    1.1333   -2.2479 H   0  0  0  0  0  0  0  0  0  0  0  0
    4.5515   -2.1817    1.9496 H   0  0  0  0  0  0  0  0  0  0  0  0
  1  2  1  0
  2  3  2  0
  3  4  1  0
  4  5  1  0
  5  6  2  3
  5  7  1  0
  7  8  1  0
  8  9  1  0
  8 10  1  0
 10 11  1  0
 10 12  1  0
 10 13  1  0
  4 14  1  0
 14 15  1  0
 15 16  2  0
 16 17  1  0
 17 18  2  0
 18 19  1  0
 19 20  2  0
 20 21  1  0
 21 22  1  0
  7  2  1  0
 22 14  2  0
 21 17  1  0
  1 23  1  0
  1 24  1  0
  1 25  1  0
  6 26  1  0
  7 27  1  0
  8 28  1  0
  9 29  1  0
 15 30  1  0
 16 31  1  0
 20 32  1  0
M  END
>  <Unnamed: 0>  (255) 
1593

>  <ID>  (255) 
TRAIN_1593

>  <Canonical_Smiles>  (255) 
CC1=NN(C(=N)C1C(O)C(F)(F)F)c2ccc3nncn3n2

>  <Inhibition>  (255) 
42.0802

>  <TDC_conf_true_inhibitor>  (255) 
0

>  <TDC_conf_non_inhibitor>  (255) 
1

>  <split>  (255) 
1

$$$$
255
     RDKit          3D

 37 39  0  0  0  0  0  0  0  0999 V2000
   -2.1959    2.2466   -0.6044 C   0  0  0  0  0  0  0  0  0  0  0  0
   -2.9709    1.1289    0.0933 C   0  0  0  0  0  0  0  0  0  0  0  0
   -4.4120    1.0592   -0.4115 C   0  0  0  0  0  0  0  0  0  0  0  0
   -2.3062   -0.1730   -0.0696 N   0  0  0  0  0  0  0  0  0  0  0  0
   -2.1689   -0.6683   -1.3854 N   0  0  0  0  0  0  0  0  0  0  0  0
   -1.0616   -1.5043   -1.4194 C   0  0  0  0  0  0  0  0  0  0  0  0
   -0.7476   -2.2877   -2.2955 O   0  0  0  0  0  0  0  0  0  0  0  0
   -0.3541   -1.3122   -0.1484 C   0  0  0  0  0  0  0  0  0  0  0  0
   -1.1529   -0.5458    0.6035 C   0  0  0  0  0  0  0  0  0  0  0  0
   -0.7431   -0.1909    1.8503 N   0  0  0  0  0  0  0  0  0  0  0  0
    0.3808   -0.6912    2.4614 C   0  0  0  0  0  0  0  0  0  0  0  0
    0.7485   -0.2586    3.5516 O   0  0  0  0  0  0  0  0  0  0  0  0
    1.0624   -1.8720    1.7823 C   0  0  0  0  0  0  0  0  0  0  0  0
    0.9643   -1.8474    0.2480 C   0  0  0  0  0  0  0  0  0  0  0  0
    2.0757   -1.0689   -0.3984 C   0  0  0  0  0  0  0  0  0  0  0  0
    2.6966   -1.3523   -1.6404 C   0  0  0  0  0  0  0  0  0  0  0  0
    3.6576   -0.4790   -1.9478 N   0  0  0  0  0  0  0  0  0  0  0  0
    3.6504    0.3794   -0.9152 N   0  0  0  0  0  0  0  0  0  0  0  0
    4.5757    1.4857   -0.9044 C   0  0  0  0  0  0  0  0  0  0  0  0
    2.7197    0.0751    0.0351 C   0  0  0  0  0  0  0  0  0  0  0  0
   -1.1702    2.3111   -0.2258 H   0  0  0  0  0  0  0  0  0  0  0  0
   -2.6776    3.2150   -0.4327 H   0  0  0  0  0  0  0  0  0  0  0  0
   -2.1408    2.0868   -1.6866 H   0  0  0  0  0  0  0  0  0  0  0  0
   -3.0189    1.3628    1.1642 H   0  0  0  0  0  0  0  0  0  0  0  0
   -4.4578    0.8932   -1.4931 H   0  0  0  0  0  0  0  0  0  0  0  0
   -4.9417    1.9931   -0.1953 H   0  0  0  0  0  0  0  0  0  0  0  0
   -4.9553    0.2418    0.0750 H   0  0  0  0  0  0  0  0  0  0  0  0
   -2.9891   -0.9329   -1.9188 H   0  0  0  0  0  0  0  0  0  0  0  0
   -1.2681    0.4940    2.3756 H   0  0  0  0  0  0  0  0  0  0  0  0
    2.1067   -1.9150    2.1136 H   0  0  0  0  0  0  0  0  0  0  0  0
    0.5623   -2.7717    2.1653 H   0  0  0  0  0  0  0  0  0  0  0  0
    1.0466   -2.8883   -0.0937 H   0  0  0  0  0  0  0  0  0  0  0  0
    2.4804   -2.1599   -2.3300 H   0  0  0  0  0  0  0  0  0  0  0  0
    4.3836    2.1044   -1.7845 H   0  0  0  0  0  0  0  0  0  0  0  0
    4.4288    2.0742    0.0046 H   0  0  0  0  0  0  0  0  0  0  0  0
    5.5922    1.0853   -0.9294 H   0  0  0  0  0  0  0  0  0  0  0  0
    2.6004    0.6826    0.9220 H   0  0  0  0  0  0  0  0  0  0  0  0
  1  2  1  0
  2  3  1  0
  2  4  1  0
  4  5  1  0
  5  6  1  0
  6  7  2  0
  6  8  1  0
  8  9  2  0
  9 10  1  0
 10 11  1  0
 11 12  2  0
 11 13  1  0
 13 14  1  0
 14 15  1  0
 15 16  1  0
 16 17  2  0
 17 18  1  0
 18 19  1  0
 18 20  1  0
  9  4  1  0
 14  8  1  0
 20 15  2  0
  1 21  1  0
  1 22  1  0
  1 23  1  0
  2 24  1  0
  3 25  1  0
  3 26  1  0
  3 27  1  0
  5 28  1  0
 10 29  1  0
 13 30  1  0
 13 31  1  0
 14 32  1  0
 16 33  1  0
 19 34  1  0
 19 35  1  0
 19 36  1  0
 20 37  1  0
M  END
>  <Unnamed: 0>  (256) 
1606

>  <ID>  (256) 
TRAIN_1606

>  <Canonical_Smiles>  (256) 
CC(C)N1NC(=O)C2=C1NC(=O)CC2c3cnn(C)c3

>  <Inhibition>  (256) 
0.5

>  <TDC_conf_true_inhibitor>  (256) 
0

>  <TDC_conf_non_inhibitor>  (256) 
1

>  <split>  (256) 
1

$$$$
256
     RDKit          3D

 41 43  0  0  0  0  0  0  0  0999 V2000
   -3.2185    1.5588    1.2487 C   0  0  0  0  0  0  0  0  0  0  0  0
   -2.1283    0.9597    0.3266 C   0  0  0  0  0  0  0  0  0  0  0  0
   -1.6501    2.0713   -0.6419 C   0  0  0  0  0  0  0  0  0  0  0  0
   -2.6762   -0.2296   -0.5245 C   0  0  0  0  0  0  0  0  0  0  0  0
   -3.9123    0.1021   -1.2477 C   0  0  0  0  0  0  0  0  0  0  0  0
   -4.8409    0.4447   -1.8552 N   0  0  0  0  0  0  0  0  0  0  0  0
   -2.8593   -1.4902    0.2972 C   0  0  0  0  0  0  0  0  0  0  0  0
   -3.7231   -2.3393    0.0954 O   0  0  0  0  0  0  0  0  0  0  0  0
   -1.9039   -1.7034    1.2538 N   0  0  0  0  0  0  0  0  0  0  0  0
   -0.9356   -0.8166    1.6275 C   0  0  0  0  0  0  0  0  0  0  0  0
   -0.9743    0.4711    1.2267 C   0  0  0  0  0  0  0  0  0  0  0  0
    0.0048    1.4162    1.6799 C   0  0  0  0  0  0  0  0  0  0  0  0
    0.7661    2.2229    2.0180 N   0  0  0  0  0  0  0  0  0  0  0  0
    0.2278   -1.5060    2.7070 S   0  0  0  0  0  0  0  0  0  0  0  0
    1.3710   -2.2623    1.4990 C   0  0  0  0  0  0  0  0  0  0  0  0
    2.2699   -1.2440    0.8311 C   0  0  0  0  0  0  0  0  0  0  0  0
    3.3570   -0.7194    1.5596 C   0  0  0  0  0  0  0  0  0  0  0  0
    4.1995    0.2283    0.9909 C   0  0  0  0  0  0  0  0  0  0  0  0
    3.9697    0.6521   -0.3153 C   0  0  0  0  0  0  0  0  0  0  0  0
    2.8926    0.1333   -1.0548 C   0  0  0  0  0  0  0  0  0  0  0  0
    2.6606    0.5487   -2.3764 C   0  0  0  0  0  0  0  0  0  0  0  0
    1.5996    0.0160   -3.0985 C   0  0  0  0  0  0  0  0  0  0  0  0
    0.7915   -0.9061   -2.4646 C   0  0  0  0  0  0  0  0  0  0  0  0
    0.9640   -1.3091   -1.1831 N   0  0  0  0  0  0  0  0  0  0  0  0
    2.0175   -0.8212   -0.4840 C   0  0  0  0  0  0  0  0  0  0  0  0
   -2.8080    2.3436    1.8891 H   0  0  0  0  0  0  0  0  0  0  0  0
   -3.6504    0.7977    1.9074 H   0  0  0  0  0  0  0  0  0  0  0  0
   -4.0379    2.0130    0.6762 H   0  0  0  0  0  0  0  0  0  0  0  0
   -0.8109    1.7307   -1.2594 H   0  0  0  0  0  0  0  0  0  0  0  0
   -1.3325    2.9743   -0.1056 H   0  0  0  0  0  0  0  0  0  0  0  0
   -2.4575    2.3774   -1.3156 H   0  0  0  0  0  0  0  0  0  0  0  0
   -1.9240   -0.4954   -1.2767 H   0  0  0  0  0  0  0  0  0  0  0  0
   -1.9262   -2.6055    1.7166 H   0  0  0  0  0  0  0  0  0  0  0  0
    0.8029   -2.8587    0.7684 H   0  0  0  0  0  0  0  0  0  0  0  0
    1.9985   -2.9877    2.0414 H   0  0  0  0  0  0  0  0  0  0  0  0
    3.5350   -1.0445    2.5825 H   0  0  0  0  0  0  0  0  0  0  0  0
    5.0278    0.6467    1.5647 H   0  0  0  0  0  0  0  0  0  0  0  0
    4.6341    1.3934   -0.7491 H   0  0  0  0  0  0  0  0  0  0  0  0
    3.3106    1.2828   -2.8517 H   0  0  0  0  0  0  0  0  0  0  0  0
    1.4123    0.3102   -4.1283 H   0  0  0  0  0  0  0  0  0  0  0  0
   -0.0429   -1.3560   -2.9826 H   0  0  0  0  0  0  0  0  0  0  0  0
  1  2  1  0
  2  3  1  0
  2  4  1  0
  4  5  1  0
  5  6  3  0
  4  7  1  0
  7  8  2  0
  7  9  1  0
  9 10  1  0
 10 11  2  0
 11 12  1  0
 12 13  3  0
 10 14  1  0
 14 15  1  0
 15 16  1  0
 16 17  2  0
 17 18  1  0
 18 19  2  0
 19 20  1  0
 20 21  2  0
 21 22  1  0
 22 23  2  0
 23 24  1  0
 24 25  2  0
 11  2  1  0
 25 16  1  0
 25 20  1  0
  1 26  1  0
  1 27  1  0
  1 28  1  0
  3 29  1  0
  3 30  1  0
  3 31  1  0
  4 32  1  0
  9 33  1  0
 15 34  1  0
 15 35  1  0
 17 36  1  0
 18 37  1  0
 19 38  1  0
 21 39  1  0
 22 40  1  0
 23 41  1  0
M  END
>  <Unnamed: 0>  (257) 
1618

>  <ID>  (257) 
TRAIN_1618

>  <Canonical_Smiles>  (257) 
CC1(C)C(C#N)C(=O)NC(=C1C#N)SCc2cccc3cccnc23

>  <Inhibition>  (257) 
52.056008

>  <TDC_conf_true_inhibitor>  (257) 
1

>  <TDC_conf_non_inhibitor>  (257) 
0

>  <split>  (257) 
1

$$$$
257
     RDKit          3D

 42 45  0  0  0  0  0  0  0  0999 V2000
    0.8028    1.3867   -0.0218 O   0  0  0  0  0  0  0  0  0  0  0  0
    1.2500    0.1218   -0.5113 C   0  0  0  0  0  0  0  0  0  0  0  0
    0.1530   -0.4848   -1.0550 N   0  0  0  0  0  0  0  0  0  0  0  0
   -1.1686    0.1753   -1.0212 C   0  0  0  0  0  0  0  0  0  0  0  0
   -1.7208    0.2959    0.3715 C   0  0  0  0  0  0  0  0  0  0  0  0
   -2.8055    1.3111    0.5117 C   0  0  0  0  0  0  0  0  0  0  0  0
   -4.1297    0.7553    0.2225 C   0  0  0  0  0  0  0  0  0  0  0  0
   -5.1767    1.6077   -0.0478 C   0  0  0  0  0  0  0  0  0  0  0  0
   -6.4239    1.1074   -0.3292 C   0  0  0  0  0  0  0  0  0  0  0  0
   -6.5957   -0.2418   -0.3360 C   0  0  0  0  0  0  0  0  0  0  0  0
   -5.5368   -1.1147   -0.0665 C   0  0  0  0  0  0  0  0  0  0  0  0
   -4.2840   -0.6064    0.2187 C   0  0  0  0  0  0  0  0  0  0  0  0
   -3.1757   -1.4937    0.5162 C   0  0  0  0  0  0  0  0  0  0  0  0
   -2.0020   -0.9468    0.9358 O   0  0  0  0  0  0  0  0  0  0  0  0
    2.5675    0.0153   -0.2556 C   0  0  0  0  0  0  0  0  0  0  0  0
    2.7733   -1.5379   -0.9576 C   0  0  0  0  0  0  0  0  0  0  0  0
    3.9691   -1.9128   -0.8645 N   0  0  0  0  0  0  0  0  0  0  0  0
    4.6812   -0.9932   -0.2548 N   0  0  0  0  0  0  0  0  0  0  0  0
    6.0923   -1.0144    0.0596 C   0  0  0  0  0  0  0  0  0  0  0  0
    6.6198    0.2411    0.6726 C   0  0  0  0  0  0  0  0  0  0  0  0
    5.7633    1.4506    0.3678 C   0  0  0  0  0  0  0  0  0  0  0  0
    4.4501    1.0842    0.7121 O   0  0  0  0  0  0  0  0  0  0  0  0
    3.8796   -0.0908   -0.0010 C   0  0  0  0  0  0  0  0  0  0  0  0
    0.2393   -1.4156   -1.5051 H   0  0  0  0  0  0  0  0  0  0  0  0
   -1.8076   -0.3948   -1.7067 H   0  0  0  0  0  0  0  0  0  0  0  0
   -1.0308    1.2117   -1.4161 H   0  0  0  0  0  0  0  0  0  0  0  0
   -0.8805    0.6783    1.0290 H   0  0  0  0  0  0  0  0  0  0  0  0
   -2.5669    2.1760   -0.1715 H   0  0  0  0  0  0  0  0  0  0  0  0
   -2.8329    1.7533    1.5505 H   0  0  0  0  0  0  0  0  0  0  0  0
   -5.0494    2.6793   -0.0421 H   0  0  0  0  0  0  0  0  0  0  0  0
   -7.2466    1.7706   -0.5401 H   0  0  0  0  0  0  0  0  0  0  0  0
   -7.5514   -0.6908   -0.5539 H   0  0  0  0  0  0  0  0  0  0  0  0
   -5.7051   -2.1768   -0.0790 H   0  0  0  0  0  0  0  0  0  0  0  0
   -3.5284   -2.1592    1.3637 H   0  0  0  0  0  0  0  0  0  0  0  0
   -3.0433   -2.2374   -0.3184 H   0  0  0  0  0  0  0  0  0  0  0  0
    1.9276   -1.9519   -1.3541 H   0  0  0  0  0  0  0  0  0  0  0  0
    6.3035   -1.9001    0.6965 H   0  0  0  0  0  0  0  0  0  0  0  0
    6.6642   -1.1518   -0.9058 H   0  0  0  0  0  0  0  0  0  0  0  0
    6.6594    0.1366    1.7776 H   0  0  0  0  0  0  0  0  0  0  0  0
    7.6471    0.5143    0.3534 H   0  0  0  0  0  0  0  0  0  0  0  0
    6.0294    2.2738    1.0802 H   0  0  0  0  0  0  0  0  0  0  0  0
    5.7898    1.7694   -0.6737 H   0  0  0  0  0  0  0  0  0  0  0  0
  1  2  2  0
  2  3  1  0
  3  4  1  0
  4  5  1  0
  5  6  1  0
  6  7  1  0
  7  8  2  0
  8  9  1  0
  9 10  2  0
 10 11  1  0
 11 12  2  0
 12 13  1  0
 13 14  1  0
  2 15  1  0
 15 16  1  0
 16 17  2  0
 17 18  1  0
 18 19  1  0
 19 20  1  0
 20 21  1  0
 21 22  1  0
 22 23  1  0
 14  5  1  0
 12  7  1  0
 23 15  2  0
 23 18  1  0
  3 24  1  0
  4 25  1  0
  4 26  1  0
  5 27  1  0
  6 28  1  0
  6 29  1  0
  8 30  1  0
  9 31  1  0
 10 32  1  0
 11 33  1  0
 13 34  1  0
 13 35  1  0
 16 36  1  0
 19 37  1  0
 19 38  1  0
 20 39  1  0
 20 40  1  0
 21 41  1  0
 21 42  1  0
M  END
>  <Unnamed: 0>  (258) 
1648

>  <ID>  (258) 
TRAIN_1648

>  <Canonical_Smiles>  (258) 
O=C(NCC1Cc2ccccc2CO1)c3cnn4CCCOc34

>  <Inhibition>  (258) 
13.18729

>  <TDC_conf_true_inhibitor>  (258) 
0

>  <TDC_conf_non_inhibitor>  (258) 
1

>  <split>  (258) 
1

$$$$
258
     RDKit          3D

 45 48  0  0  0  0  0  0  0  0999 V2000
    5.7722   -1.1508   -1.0744 C   0  0  0  0  0  0  0  0  0  0  0  0
    4.7522   -0.3575   -0.3130 C   0  0  0  0  0  0  0  0  0  0  0  0
    5.1316    0.4229    0.7768 C   0  0  0  0  0  0  0  0  0  0  0  0
    4.1707    1.1329    1.4922 C   0  0  0  0  0  0  0  0  0  0  0  0
    2.8110    1.0719    1.1366 C   0  0  0  0  0  0  0  0  0  0  0  0
    1.8375    1.9002    1.9332 C   0  0  0  0  0  0  0  0  0  0  0  0
    2.3953    0.2502    0.0637 C   0  0  0  0  0  0  0  0  0  0  0  0
    3.3916   -0.4439   -0.6488 C   0  0  0  0  0  0  0  0  0  0  0  0
    1.0399    0.1334   -0.2675 N   0  0  0  0  0  0  0  0  0  0  0  0
    0.1980   -0.5476    0.7576 C   0  0  0  0  0  0  0  0  0  0  0  0
   -0.7723   -1.5661    0.1226 C   0  0  0  0  0  0  0  0  0  0  0  0
   -1.5997   -0.9492   -0.9292 N   0  0  0  0  0  0  0  0  0  0  0  0
   -0.8753   -0.0350   -1.8445 C   0  0  0  0  0  0  0  0  0  0  0  0
    0.6588   -0.1356   -1.6718 C   0  0  0  0  0  0  0  0  0  0  0  0
   -2.8803   -0.4746   -0.6148 C   0  0  0  0  0  0  0  0  0  0  0  0
   -3.6273    0.0537   -1.6378 N   0  0  0  0  0  0  0  0  0  0  0  0
   -4.8764    0.4989   -1.4230 C   0  0  0  0  0  0  0  0  0  0  0  0
   -5.5401    1.0182   -2.5178 N   0  0  0  0  0  0  0  0  0  0  0  0
   -5.5222    0.5367   -0.2523 N   0  0  0  0  0  0  0  0  0  0  0  0
   -4.7784    0.0273    0.7346 C   0  0  0  0  0  0  0  0  0  0  0  0
   -5.1463   -0.0858    2.0431 N   0  0  0  0  0  0  0  0  0  0  0  0
   -4.0958   -0.6363    2.7205 C   0  0  0  0  0  0  0  0  0  0  0  0
   -3.0793   -0.8844    1.9234 N   0  0  0  0  0  0  0  0  0  0  0  0
   -3.4949   -0.4858    0.6611 C   0  0  0  0  0  0  0  0  0  0  0  0
    6.7526   -0.6641   -1.0405 H   0  0  0  0  0  0  0  0  0  0  0  0
    5.8613   -2.1541   -0.6469 H   0  0  0  0  0  0  0  0  0  0  0  0
    5.4901   -1.2377   -2.1290 H   0  0  0  0  0  0  0  0  0  0  0  0
    6.1753    0.4892    1.0735 H   0  0  0  0  0  0  0  0  0  0  0  0
    4.4885    1.7492    2.3303 H   0  0  0  0  0  0  0  0  0  0  0  0
    1.0628    2.3290    1.2895 H   0  0  0  0  0  0  0  0  0  0  0  0
    1.3722    1.2905    2.7133 H   0  0  0  0  0  0  0  0  0  0  0  0
    2.3422    2.7445    2.4159 H   0  0  0  0  0  0  0  0  0  0  0  0
    3.1156   -1.0946   -1.4732 H   0  0  0  0  0  0  0  0  0  0  0  0
    0.8154   -1.0755    1.4954 H   0  0  0  0  0  0  0  0  0  0  0  0
   -0.3802    0.2170    1.2884 H   0  0  0  0  0  0  0  0  0  0  0  0
   -0.1792   -2.3592   -0.3529 H   0  0  0  0  0  0  0  0  0  0  0  0
   -1.3567   -2.0920    0.8814 H   0  0  0  0  0  0  0  0  0  0  0  0
   -1.1397   -0.2742   -2.8811 H   0  0  0  0  0  0  0  0  0  0  0  0
   -1.1578    1.0098   -1.6531 H   0  0  0  0  0  0  0  0  0  0  0  0
    0.9844   -1.1366   -1.9800 H   0  0  0  0  0  0  0  0  0  0  0  0
    1.1361    0.5965   -2.3342 H   0  0  0  0  0  0  0  0  0  0  0  0
   -6.2212    1.7007   -2.2192 H   0  0  0  0  0  0  0  0  0  0  0  0
   -4.8659    1.3021   -3.2149 H   0  0  0  0  0  0  0  0  0  0  0  0
   -6.0371    0.1960    2.4229 H   0  0  0  0  0  0  0  0  0  0  0  0
   -4.1294   -0.8300    3.7848 H   0  0  0  0  0  0  0  0  0  0  0  0
  1  2  1  0
  2  3  2  0
  3  4  1  0
  4  5  2  0
  5  6  1  0
  5  7  1  0
  7  8  2  0
  7  9  1  0
  9 10  1  0
 10 11  1  0
 11 12  1  0
 12 13  1  0
 13 14  1  0
 12 15  1  0
 15 16  2  0
 16 17  1  0
 17 18  1  0
 17 19  2  0
 19 20  1  0
 20 21  1  0
 21 22  1  0
 22 23  2  0
 23 24  1  0
  8  2  1  0
 14  9  1  0
 24 15  1  0
 24 20  2  0
  1 25  1  0
  1 26  1  0
  1 27  1  0
  3 28  1  0
  4 29  1  0
  6 30  1  0
  6 31  1  0
  6 32  1  0
  8 33  1  0
 10 34  1  0
 10 35  1  0
 11 36  1  0
 11 37  1  0
 13 38  1  0
 13 39  1  0
 14 40  1  0
 14 41  1  0
 18 42  1  0
 18 43  1  0
 21 44  1  0
 22 45  1  0
M  END
>  <Unnamed: 0>  (259) 
1651

>  <ID>  (259) 
TRAIN_1651

>  <Canonical_Smiles>  (259) 
Cc1ccc(C)c(c1)N2CCN(CC2)c3nc(N)nc4[nH]cnc34

>  <Inhibition>  (259) 
90.043952

>  <TDC_conf_true_inhibitor>  (259) 
1

>  <TDC_conf_non_inhibitor>  (259) 
0

>  <split>  (259) 
1

$$$$
259
     RDKit          3D

 48 51  0  0  0  0  0  0  0  0999 V2000
    3.7895   -0.8134   -1.4403 O   0  0  0  0  0  0  0  0  0  0  0  0
    3.6609    0.4788   -0.8473 C   0  0  0  0  0  0  0  0  0  0  0  0
    2.6931    1.3194   -1.6884 C   0  0  0  0  0  0  0  0  0  0  0  0
    1.2564    1.3088   -1.1463 C   0  0  0  0  0  0  0  0  0  0  0  0
    0.8905   -0.0522   -0.5380 C   0  0  0  0  0  0  0  0  0  0  0  0
    1.8091   -0.4229    0.6372 C   0  0  0  0  0  0  0  0  0  0  0  0
    3.1660    0.2916    0.5850 C   0  0  0  0  0  0  0  0  0  0  0  0
   -0.5566   -0.2196   -0.2071 N   0  0  0  0  0  0  0  0  0  0  0  0
   -1.2096   -1.4323   -0.5206 C   0  0  0  0  0  0  0  0  0  0  0  0
   -2.5104   -1.4295   -0.8834 C   0  0  0  0  0  0  0  0  0  0  0  0
   -3.3190   -2.6724   -1.1359 C   0  0  0  0  0  0  0  0  0  0  0  0
   -2.6731   -3.9269   -0.5515 C   0  0  0  0  0  0  0  0  0  0  0  0
   -1.1956   -3.9720   -0.9043 C   0  0  0  0  0  0  0  0  0  0  0  0
   -0.4582   -2.7439   -0.3634 C   0  0  0  0  0  0  0  0  0  0  0  0
   -3.1484   -0.0813   -1.0697 C   0  0  0  0  0  0  0  0  0  0  0  0
   -4.4396    0.2131   -2.1212 S   0  0  0  0  0  0  0  0  0  0  0  0
   -2.6395    0.9268   -0.2844 N   0  0  0  0  0  0  0  0  0  0  0  0
   -1.3997    0.8584    0.1064 C   0  0  0  0  0  0  0  0  0  0  0  0
   -0.9693    1.9802    0.9901 C   0  0  0  0  0  0  0  0  0  0  0  0
   -1.1675    3.3008    0.5713 C   0  0  0  0  0  0  0  0  0  0  0  0
   -0.7880    4.3552    1.4019 C   0  0  0  0  0  0  0  0  0  0  0  0
   -0.2335    4.0905    2.6548 C   0  0  0  0  0  0  0  0  0  0  0  0
   -0.0715    2.7730    3.0868 C   0  0  0  0  0  0  0  0  0  0  0  0
   -0.4499    1.7157    2.2587 C   0  0  0  0  0  0  0  0  0  0  0  0
    4.2590   -0.7007   -2.2863 H   0  0  0  0  0  0  0  0  0  0  0  0
    4.6555    0.9382   -0.8451 H   0  0  0  0  0  0  0  0  0  0  0  0
    2.6885    0.9667   -2.7268 H   0  0  0  0  0  0  0  0  0  0  0  0
    3.0364    2.3609   -1.7080 H   0  0  0  0  0  0  0  0  0  0  0  0
    0.5615    1.5819   -1.9491 H   0  0  0  0  0  0  0  0  0  0  0  0
    1.1969    2.0980   -0.3921 H   0  0  0  0  0  0  0  0  0  0  0  0
    1.1080   -0.7578   -1.3511 H   0  0  0  0  0  0  0  0  0  0  0  0
    1.9804   -1.5067    0.6221 H   0  0  0  0  0  0  0  0  0  0  0  0
    1.3457   -0.2253    1.6056 H   0  0  0  0  0  0  0  0  0  0  0  0
    3.0868    1.2696    1.0755 H   0  0  0  0  0  0  0  0  0  0  0  0
    3.8897   -0.2983    1.1599 H   0  0  0  0  0  0  0  0  0  0  0  0
   -3.4418   -2.8066   -2.2172 H   0  0  0  0  0  0  0  0  0  0  0  0
   -4.3192   -2.5735   -0.6990 H   0  0  0  0  0  0  0  0  0  0  0  0
   -2.7930   -3.9348    0.5396 H   0  0  0  0  0  0  0  0  0  0  0  0
   -3.1817   -4.8183   -0.9370 H   0  0  0  0  0  0  0  0  0  0  0  0
   -1.0816   -4.0162   -1.9953 H   0  0  0  0  0  0  0  0  0  0  0  0
   -0.7385   -4.8826   -0.5009 H   0  0  0  0  0  0  0  0  0  0  0  0
    0.5132   -2.7129   -0.8666 H   0  0  0  0  0  0  0  0  0  0  0  0
   -0.2607   -2.8918    0.7068 H   0  0  0  0  0  0  0  0  0  0  0  0
   -1.6174    3.5039   -0.3975 H   0  0  0  0  0  0  0  0  0  0  0  0
   -0.9367    5.3819    1.0772 H   0  0  0  0  0  0  0  0  0  0  0  0
    0.0528    4.9132    3.3054 H   0  0  0  0  0  0  0  0  0  0  0  0
    0.3314    2.5714    4.0761 H   0  0  0  0  0  0  0  0  0  0  0  0
   -0.3715    0.6941    2.6177 H   0  0  0  0  0  0  0  0  0  0  0  0
  1  2  1  0
  2  3  1  0
  3  4  1  0
  4  5  1  0
  5  6  1  0
  6  7  1  0
  5  8  1  0
  8  9  1  0
  9 10  2  0
 10 11  1  0
 11 12  1  0
 12 13  1  0
 13 14  1  0
 10 15  1  0
 15 16  2  0
 15 17  1  0
 17 18  2  0
 18 19  1  0
 19 20  2  0
 20 21  1  0
 21 22  2  0
 22 23  1  0
 23 24  2  0
  7  2  1  0
 18  8  1  0
 14  9  1  0
 24 19  1  0
  1 25  1  0
  2 26  1  0
  3 27  1  0
  3 28  1  0
  4 29  1  0
  4 30  1  0
  5 31  1  0
  6 32  1  0
  6 33  1  0
  7 34  1  0
  7 35  1  0
 11 36  1  0
 11 37  1  0
 12 38  1  0
 12 39  1  0
 13 40  1  0
 13 41  1  0
 14 42  1  0
 14 43  1  0
 20 44  1  0
 21 45  1  0
 22 46  1  0
 23 47  1  0
 24 48  1  0
M  END
>  <Unnamed: 0>  (260) 
1656

>  <ID>  (260) 
TRAIN_1656

>  <Canonical_Smiles>  (260) 
OC1CCC(CC1)N2C3=C(CCCC3)C(=S)N=C2c4ccccc4

>  <Inhibition>  (260) 
16.906694

>  <TDC_conf_true_inhibitor>  (260) 
0

>  <TDC_conf_non_inhibitor>  (260) 
1

>  <split>  (260) 
1

$$$$
260
     RDKit          3D

 40 41  0  0  0  0  0  0  0  0999 V2000
    4.2824    2.0604   -1.5994 C   0  0  0  0  0  0  0  0  0  0  0  0
    4.7460    0.9313   -0.7106 C   0  0  0  0  0  0  0  0  0  0  0  0
    3.5680    0.5443    0.5726 S   0  0  0  0  0  6  0  0  0  0  0  0
    3.1196    1.7875    1.1532 O   0  0  0  0  0  0  0  0  0  0  0  0
    4.1146   -0.5047    1.4055 O   0  0  0  0  0  0  0  0  0  0  0  0
    2.2817   -0.1336   -0.2975 N   0  0  0  0  0  0  0  0  0  0  0  0
    2.4969   -1.4738   -0.8950 C   0  0  0  0  0  0  0  0  0  0  0  0
    1.6063   -2.4133   -0.0982 C   0  0  0  0  0  0  0  0  0  0  0  0
    0.3829   -1.5675    0.1821 C   0  0  0  0  0  0  0  0  0  0  0  0
    0.9834   -0.1831    0.4586 C   0  0  0  0  0  0  0  0  0  0  0  0
   -0.4297   -1.6047   -1.0015 O   0  0  0  0  0  0  0  0  0  0  0  0
   -1.7581   -1.4110   -0.6758 C   0  0  0  0  0  0  0  0  0  0  0  0
   -2.6930   -2.3178   -1.1462 C   0  0  0  0  0  0  0  0  0  0  0  0
   -4.0053   -2.2029   -0.8662 N   0  0  0  0  0  0  0  0  0  0  0  0
   -4.3246   -1.1057   -0.1257 C   0  0  0  0  0  0  0  0  0  0  0  0
   -3.4037   -0.1357    0.3192 C   0  0  0  0  0  0  0  0  0  0  0  0
   -2.0885   -0.3196    0.0596 N   0  0  0  0  0  0  0  0  0  0  0  0
   -3.8198    1.0092    1.0311 N   0  0  0  0  0  0  0  0  0  0  0  0
   -2.7324    1.8866    1.4645 C   0  0  0  0  0  0  0  0  0  0  0  0
   -4.9764    1.6867    0.4635 C   0  0  0  0  0  0  0  0  0  0  0  0
    3.3292    1.8146   -2.1085 H   0  0  0  0  0  0  0  0  0  0  0  0
    5.0303    2.2568   -2.3621 H   0  0  0  0  0  0  0  0  0  0  0  0
    4.1398    2.9831   -1.0203 H   0  0  0  0  0  0  0  0  0  0  0  0
    5.6799    1.2057   -0.2020 H   0  0  0  0  0  0  0  0  0  0  0  0
    4.9292    0.0193   -1.2904 H   0  0  0  0  0  0  0  0  0  0  0  0
    3.5393   -1.8030   -0.8604 H   0  0  0  0  0  0  0  0  0  0  0  0
    2.1941   -1.4276   -1.9477 H   0  0  0  0  0  0  0  0  0  0  0  0
    2.1002   -2.7016    0.8343 H   0  0  0  0  0  0  0  0  0  0  0  0
    1.3817   -3.3203   -0.6656 H   0  0  0  0  0  0  0  0  0  0  0  0
   -0.1601   -1.9675    1.0533 H   0  0  0  0  0  0  0  0  0  0  0  0
    0.3513    0.6533    0.1303 H   0  0  0  0  0  0  0  0  0  0  0  0
    1.1731   -0.0898    1.5472 H   0  0  0  0  0  0  0  0  0  0  0  0
   -2.4021   -3.1763   -1.7347 H   0  0  0  0  0  0  0  0  0  0  0  0
   -5.3810   -1.0148    0.1194 H   0  0  0  0  0  0  0  0  0  0  0  0
   -3.1170    2.6366    2.1759 H   0  0  0  0  0  0  0  0  0  0  0  0
   -1.9675    1.3416    2.0047 H   0  0  0  0  0  0  0  0  0  0  0  0
   -2.2870    2.4357    0.6134 H   0  0  0  0  0  0  0  0  0  0  0  0
   -4.9134    1.7843   -0.6276 H   0  0  0  0  0  0  0  0  0  0  0  0
   -5.8893    1.1417    0.7248 H   0  0  0  0  0  0  0  0  0  0  0  0
   -5.0809    2.6958    0.8587 H   0  0  0  0  0  0  0  0  0  0  0  0
  1  2  1  0
  2  3  1  0
  3  4  2  0
  3  5  2  0
  3  6  1  0
  6  7  1  0
  7  8  1  0
  8  9  1  0
  9 10  1  0
  9 11  1  0
 11 12  1  0
 12 13  2  0
 13 14  1  0
 14 15  2  0
 15 16  1  0
 16 17  2  0
 16 18  1  0
 18 19  1  0
 18 20  1  0
 10  6  1  0
 17 12  1  0
  1 21  1  0
  1 22  1  0
  1 23  1  0
  2 24  1  0
  2 25  1  0
  7 26  1  0
  7 27  1  0
  8 28  1  0
  8 29  1  0
  9 30  1  0
 10 31  1  0
 10 32  1  0
 13 33  1  0
 15 34  1  0
 19 35  1  0
 19 36  1  0
 19 37  1  0
 20 38  1  0
 20 39  1  0
 20 40  1  0
M  END
>  <Unnamed: 0>  (261) 
1658

>  <ID>  (261) 
TRAIN_1658

>  <Canonical_Smiles>  (261) 
CCS(=O)(=O)N1CCC(C1)Oc2cncc(n2)N(C)C

>  <Inhibition>  (261) 
30.262495

>  <TDC_conf_true_inhibitor>  (261) 
0

>  <TDC_conf_non_inhibitor>  (261) 
1

>  <split>  (261) 
1

$$$$
261
     RDKit          3D

 38 40  0  0  0  0  0  0  0  0999 V2000
    5.7990    2.2108    0.7140 C   0  0  0  0  0  0  0  0  0  0  0  0
    5.3893    0.9433    0.1367 N   0  0  0  0  0  0  0  0  0  0  0  0
    4.0288    0.6997    0.1316 N   0  0  0  0  0  0  0  0  0  0  0  0
    3.6318   -0.4281   -0.3783 C   0  0  0  0  0  0  0  0  0  0  0  0
    4.5154   -1.4597   -0.9489 C   0  0  0  0  0  0  0  0  0  0  0  0
    5.8232   -1.2010   -0.9299 C   0  0  0  0  0  0  0  0  0  0  0  0
    6.3433    0.0620   -0.3614 C   0  0  0  0  0  0  0  0  0  0  0  0
    7.5559    0.2546   -0.3618 O   0  0  0  0  0  0  0  0  0  0  0  0
    2.1272   -0.7196   -0.3939 C   0  0  0  0  0  0  0  0  0  0  0  0
    1.6912   -1.7243   -0.9323 O   0  0  0  0  0  0  0  0  0  0  0  0
    1.3698    0.2411    0.2382 N   0  0  0  0  0  0  0  0  0  0  0  0
   -0.0790    0.2835    0.1383 C   0  0  0  0  0  0  0  0  0  0  0  0
   -0.7753   -0.9258    0.7599 C   0  0  0  0  0  0  0  0  0  0  0  0
   -2.1976   -0.6988    0.9387 N   0  0  0  0  0  0  0  0  0  0  0  0
   -2.8900   -0.7431    2.1137 C   0  0  0  0  0  0  0  0  0  0  0  0
   -4.1987   -0.4659    1.7912 C   0  0  0  0  0  0  0  0  0  0  0  0
   -4.1966   -0.2662    0.3927 C   0  0  0  0  0  0  0  0  0  0  0  0
   -2.9687   -0.4056   -0.1237 N   0  0  0  0  0  0  0  0  0  0  0  0
   -5.3691    0.0589   -0.4318 C   0  0  0  0  0  0  0  0  0  0  0  0
   -6.6901    0.2373    0.0838 C   0  0  0  0  0  0  0  0  0  0  0  0
   -7.6011    0.5362   -0.9075 C   0  0  0  0  0  0  0  0  0  0  0  0
   -6.8720    0.6029   -2.4530 S   0  0  0  0  0  0  0  0  0  0  0  0
   -5.3350    0.2309   -1.8012 C   0  0  0  0  0  0  0  0  0  0  0  0
    5.4748    2.2404    1.7586 H   0  0  0  0  0  0  0  0  0  0  0  0
    5.3168    3.0210    0.1590 H   0  0  0  0  0  0  0  0  0  0  0  0
    6.8828    2.3450    0.6722 H   0  0  0  0  0  0  0  0  0  0  0  0
    4.0945   -2.3690   -1.3568 H   0  0  0  0  0  0  0  0  0  0  0  0
    6.5582   -1.8909   -1.3243 H   0  0  0  0  0  0  0  0  0  0  0  0
    1.8757    1.0828    0.5063 H   0  0  0  0  0  0  0  0  0  0  0  0
   -0.3953    1.2068    0.6373 H   0  0  0  0  0  0  0  0  0  0  0  0
   -0.3387    0.3734   -0.9229 H   0  0  0  0  0  0  0  0  0  0  0  0
   -0.6721   -1.8201    0.1362 H   0  0  0  0  0  0  0  0  0  0  0  0
   -0.3479   -1.1529    1.7434 H   0  0  0  0  0  0  0  0  0  0  0  0
   -2.4109   -0.9666    3.0565 H   0  0  0  0  0  0  0  0  0  0  0  0
   -5.0308   -0.4201    2.4780 H   0  0  0  0  0  0  0  0  0  0  0  0
   -6.9742    0.1541    1.1248 H   0  0  0  0  0  0  0  0  0  0  0  0
   -8.6615    0.7190   -0.8000 H   0  0  0  0  0  0  0  0  0  0  0  0
   -4.4732    0.1537   -2.4509 H   0  0  0  0  0  0  0  0  0  0  0  0
  1  2  1  0
  2  3  1  0
  3  4  2  0
  4  5  1  0
  5  6  2  0
  6  7  1  0
  7  8  2  0
  4  9  1  0
  9 10  2  0
  9 11  1  0
 11 12  1  0
 12 13  1  0
 13 14  1  0
 14 15  1  0
 15 16  2  0
 16 17  1  0
 17 18  2  0
 17 19  1  0
 19 20  1  0
 20 21  2  0
 21 22  1  0
 22 23  1  0
  7  2  1  0
 18 14  1  0
 23 19  2  0
  1 24  1  0
  1 25  1  0
  1 26  1  0
  5 27  1  0
  6 28  1  0
 11 29  1  0
 12 30  1  0
 12 31  1  0
 13 32  1  0
 13 33  1  0
 15 34  1  0
 16 35  1  0
 20 36  1  0
 21 37  1  0
 23 38  1  0
M  END
>  <Unnamed: 0>  (262) 
1659

>  <ID>  (262) 
TRAIN_1659

>  <Canonical_Smiles>  (262) 
CN1N=C(C=CC1=O)C(=O)NCCn2ccc(n2)c3ccsc3

>  <Inhibition>  (262) 
27.519414

>  <TDC_conf_true_inhibitor>  (262) 
0

>  <TDC_conf_non_inhibitor>  (262) 
1

>  <split>  (262) 
1

$$$$
262
     RDKit          3D

 40 42  0  0  0  0  0  0  0  0999 V2000
    0.6828    0.0000    0.0000 Cl  0  0  0  0  0  0  0  0  0  0  0  0
    5.8585    0.7914   -1.6394 C   0  0  0  0  0  0  0  0  0  0  0  0
    4.5288    0.4661   -1.0210 C   0  0  0  0  0  0  0  0  0  0  0  0
    3.4240    1.2227   -1.3156 C   0  0  0  0  0  0  0  0  0  0  0  0
    2.1955    0.9470   -0.7639 C   0  0  0  0  0  0  0  0  0  0  0  0
    2.0271   -0.1025    0.1082 C   0  0  0  0  0  0  0  0  0  0  0  0
    0.9278   -0.6056    0.8039 C   0  0  0  0  0  0  0  0  0  0  0  0
    1.4050   -1.6693    1.5112 C   0  0  0  0  0  0  0  0  0  0  0  0
    0.5611   -2.5118    2.4045 C   0  0  0  0  0  0  0  0  0  0  0  0
    2.7151   -1.8189    1.2720 N   0  0  0  0  0  0  0  0  0  0  0  0
    3.1439   -0.8608    0.4009 C   0  0  0  0  0  0  0  0  0  0  0  0
    4.3817   -0.5927   -0.1475 C   0  0  0  0  0  0  0  0  0  0  0  0
   -0.4268   -0.0775    0.7572 C   0  0  0  0  0  0  0  0  0  0  0  0
   -1.4606   -0.3850   -0.0664 C   0  0  0  0  0  0  0  0  0  0  0  0
   -2.5869    0.3783    0.2541 N   0  0  0  0  0  0  0  0  0  0  0  0
   -3.8110    0.4983   -0.1844 C   0  0  0  0  0  0  0  0  0  0  0  0
   -4.4226   -0.3005   -1.3562 C   0  0  0  0  0  0  0  0  0  0  0  0
   -4.6667    1.3991    0.4148 C   0  0  0  0  0  0  0  0  0  0  0  0
   -6.0515    1.7502    0.1574 C   0  0  0  0  0  0  0  0  0  0  0  0
   -3.5988    2.0990    1.6894 S   0  0  0  0  0  0  0  0  0  0  0  0
   -2.1663    1.1358    1.2904 C   0  0  0  0  0  0  0  0  0  0  0  0
   -0.8856    0.8807    1.6054 N   0  0  0  0  0  0  0  0  0  0  0  0
   -0.6828    0.0000    0.0000 H   0  0  0  0  0  0  0  0  0  0  0  0
    6.6399    0.1776   -1.1550 H   0  0  0  0  0  0  0  0  0  0  0  0
    5.8381    0.6351   -2.7302 H   0  0  0  0  0  0  0  0  0  0  0  0
    6.1170    1.8505   -1.4558 H   0  0  0  0  0  0  0  0  0  0  0  0
    3.5331    2.0509   -1.9973 H   0  0  0  0  0  0  0  0  0  0  0  0
    1.3027    1.5384   -0.9862 H   0  0  0  0  0  0  0  0  0  0  0  0
    1.2546   -2.9524    3.1691 H   0  0  0  0  0  0  0  0  0  0  0  0
   -0.1602   -1.8996    2.9662 H   0  0  0  0  0  0  0  0  0  0  0  0
    0.1072   -3.3699    1.8783 H   0  0  0  0  0  0  0  0  0  0  0  0
    3.3552   -2.5487    1.6721 H   0  0  0  0  0  0  0  0  0  0  0  0
    5.2213   -1.2131    0.1122 H   0  0  0  0  0  0  0  0  0  0  0  0
   -1.3818   -1.1226   -0.8475 H   0  0  0  0  0  0  0  0  0  0  0  0
   -5.3649   -0.7365   -1.0124 H   0  0  0  0  0  0  0  0  0  0  0  0
   -4.6184    0.3899   -2.1977 H   0  0  0  0  0  0  0  0  0  0  0  0
   -3.7548   -1.0949   -1.6758 H   0  0  0  0  0  0  0  0  0  0  0  0
   -6.2249    1.7541   -0.9491 H   0  0  0  0  0  0  0  0  0  0  0  0
   -6.2160    2.7989    0.5019 H   0  0  0  0  0  0  0  0  0  0  0  0
   -6.7396    1.0981    0.6998 H   0  0  0  0  0  0  0  0  0  0  0  0
  2  3  1  0
  3  4  2  0
  4  5  1  0
  5  6  2  0
  6  7  1  0
  7  8  2  0
  8  9  1  0
  8 10  1  0
 10 11  1  0
 11 12  2  0
  7 13  1  0
 13 14  2  0
 14 15  1  0
 15 16  1  0
 16 17  1  0
 16 18  2  0
 18 19  1  0
 18 20  1  0
 20 21  1  0
 21 22  2  0
 12  3  1  0
 11  6  1  0
 22 13  1  0
 21 15  1  0
  1 23  1  0
  2 24  1  0
  2 25  1  0
  2 26  1  0
  4 27  1  0
  5 28  1  0
  9 29  1  0
  9 30  1  0
  9 31  1  0
 10 32  1  0
 12 33  1  0
 14 34  1  0
 17 35  1  0
 17 36  1  0
 17 37  1  0
 19 38  1  0
 19 39  1  0
 19 40  1  0
M  END
>  <Unnamed: 0>  (263) 
1664

>  <ID>  (263) 
TRAIN_1664

>  <Canonical_Smiles>  (263) 
Cl.Cc1ccc2c(c(C)[nH]c2c1)c3cn4c(C)c(C)sc4n3

>  <Inhibition>  (263) 
85.777322

>  <TDC_conf_true_inhibitor>  (263) 
1

>  <TDC_conf_non_inhibitor>  (263) 
0

>  <split>  (263) 
1

$$$$
263
     RDKit          3D

 45 47  0  0  0  0  0  0  0  0999 V2000
   -8.6633   -2.0260    1.2823 C   0  0  0  0  0  0  0  0  0  0  0  0
   -7.8241   -0.8746    1.3899 O   0  0  0  0  0  0  0  0  0  0  0  0
   -6.6021   -1.0221    0.8091 C   0  0  0  0  0  0  0  0  0  0  0  0
   -6.2328   -2.0400    0.2451 O   0  0  0  0  0  0  0  0  0  0  0  0
   -5.9110    0.1430    0.9845 N   0  0  0  0  0  0  0  0  0  0  0  0
   -4.6143    0.4644    0.5521 C   0  0  0  0  0  0  0  0  0  0  0  0
   -3.8029   -0.4059   -0.1820 C   0  0  0  0  0  0  0  0  0  0  0  0
   -2.5204   -0.0145   -0.5795 C   0  0  0  0  0  0  0  0  0  0  0  0
   -2.0457    1.2518   -0.2337 C   0  0  0  0  0  0  0  0  0  0  0  0
   -2.8449    2.1357    0.4911 C   0  0  0  0  0  0  0  0  0  0  0  0
   -4.1266    1.7374    0.8819 C   0  0  0  0  0  0  0  0  0  0  0  0
   -0.4168    1.7294   -0.7422 S   0  0  0  0  0  6  0  0  0  0  0  0
   -0.2293    1.3128   -2.1121 O   0  0  0  0  0  0  0  0  0  0  0  0
   -0.1853    3.0918   -0.3164 O   0  0  0  0  0  0  0  0  0  0  0  0
    0.5415    0.7476    0.2490 N   0  0  0  0  0  0  0  0  0  0  0  0
    2.0057    1.0094    0.2114 C   0  0  0  0  0  0  0  0  0  0  0  0
    2.6454    0.7573   -1.1615 C   0  0  0  0  0  0  0  0  0  0  0  0
    4.0939    0.7915   -1.0664 N   0  0  0  0  0  0  0  0  0  0  0  0
    4.9392    1.9037   -1.1617 C   0  0  0  0  0  0  0  0  0  0  0  0
    6.2067    1.5228   -0.8970 C   0  0  0  0  0  0  0  0  0  0  0  0
    6.1651    0.1648   -0.6202 N   0  0  0  0  0  0  0  0  0  0  0  0
    7.0173   -0.8118   -0.2731 N   0  0  0  0  0  0  0  0  0  0  0  0
    6.2213   -1.8941   -0.1612 C   0  0  0  0  0  0  0  0  0  0  0  0
    6.8109   -3.2046    0.2078 C   0  0  0  0  0  0  0  0  0  0  0  0
    4.8484   -1.6061   -0.4288 C   0  0  0  0  0  0  0  0  0  0  0  0
    4.8635   -0.2776   -0.7185 C   0  0  0  0  0  0  0  0  0  0  0  0
   -8.8655   -2.2571    0.2316 H   0  0  0  0  0  0  0  0  0  0  0  0
   -8.2066   -2.8821    1.7888 H   0  0  0  0  0  0  0  0  0  0  0  0
   -9.6128   -1.7997    1.7752 H   0  0  0  0  0  0  0  0  0  0  0  0
   -6.4324    0.8412    1.4962 H   0  0  0  0  0  0  0  0  0  0  0  0
   -4.1423   -1.3972   -0.4690 H   0  0  0  0  0  0  0  0  0  0  0  0
   -1.9036   -0.6991   -1.1593 H   0  0  0  0  0  0  0  0  0  0  0  0
   -2.4879    3.1300    0.7508 H   0  0  0  0  0  0  0  0  0  0  0  0
   -4.7396    2.4376    1.4449 H   0  0  0  0  0  0  0  0  0  0  0  0
    0.1778    0.7251    1.2029 H   0  0  0  0  0  0  0  0  0  0  0  0
    2.4581    0.3424    0.9560 H   0  0  0  0  0  0  0  0  0  0  0  0
    2.2066    2.0290    0.5602 H   0  0  0  0  0  0  0  0  0  0  0  0
    2.3203    1.5202   -1.8774 H   0  0  0  0  0  0  0  0  0  0  0  0
    2.3129   -0.2088   -1.5614 H   0  0  0  0  0  0  0  0  0  0  0  0
    4.5506    2.8795   -1.4157 H   0  0  0  0  0  0  0  0  0  0  0  0
    7.1234    2.0820   -0.8730 H   0  0  0  0  0  0  0  0  0  0  0  0
    7.5412   -3.5215   -0.5435 H   0  0  0  0  0  0  0  0  0  0  0  0
    6.0396   -3.9783    0.2786 H   0  0  0  0  0  0  0  0  0  0  0  0
    7.3151   -3.1397    1.1774 H   0  0  0  0  0  0  0  0  0  0  0  0
    4.0056   -2.2797   -0.4129 H   0  0  0  0  0  0  0  0  0  0  0  0
  1  2  1  0
  2  3  1  0
  3  4  2  0
  3  5  1  0
  5  6  1  0
  6  7  2  0
  7  8  1  0
  8  9  2  0
  9 10  1  0
 10 11  2  0
  9 12  1  0
 12 13  2  0
 12 14  2  0
 12 15  1  0
 15 16  1  0
 16 17  1  0
 17 18  1  0
 18 19  1  0
 19 20  2  0
 20 21  1  0
 21 22  1  0
 22 23  2  0
 23 24  1  0
 23 25  1  0
 25 26  2  0
 11  6  1  0
 26 18  1  0
 26 21  1  0
  1 27  1  0
  1 28  1  0
  1 29  1  0
  5 30  1  0
  7 31  1  0
  8 32  1  0
 10 33  1  0
 11 34  1  0
 15 35  1  0
 16 36  1  0
 16 37  1  0
 17 38  1  0
 17 39  1  0
 19 40  1  0
 20 41  1  0
 24 42  1  0
 24 43  1  0
 24 44  1  0
 25 45  1  0
M  END
>  <Unnamed: 0>  (264) 
1669

>  <ID>  (264) 
TRAIN_1669

>  <Canonical_Smiles>  (264) 
COC(=O)Nc1ccc(cc1)S(=O)(=O)NCCn2ccn3nc(C)cc23

>  <Inhibition>  (264) 
50.923336

>  <TDC_conf_true_inhibitor>  (264) 
1

>  <TDC_conf_non_inhibitor>  (264) 
0

>  <split>  (264) 
1

$$$$
264
     RDKit          3D

 39 41  0  0  0  0  0  0  0  0999 V2000
   -6.3754    1.6634    0.1729 C   0  0  0  0  0  0  0  0  0  0  0  0
   -5.5780    0.3859    0.4155 C   0  0  0  0  0  0  0  0  0  0  0  0
   -5.9536   -0.2373    1.7590 C   0  0  0  0  0  0  0  0  0  0  0  0
   -4.1500    0.6768    0.3564 N   0  0  0  0  0  0  0  0  0  0  0  0
   -3.2349   -0.3296    0.1057 C   0  0  0  0  0  0  0  0  0  0  0  0
   -3.5658   -1.4823   -0.1341 O   0  0  0  0  0  0  0  0  0  0  0  0
   -1.9494    0.1678    0.1474 N   0  0  0  0  0  0  0  0  0  0  0  0
   -0.7457   -0.5542    0.0228 C   0  0  0  0  0  0  0  0  0  0  0  0
   -0.6763   -1.9452    0.0024 C   0  0  0  0  0  0  0  0  0  0  0  0
    0.5570   -2.5894   -0.1166 C   0  0  0  0  0  0  0  0  0  0  0  0
    1.7332   -1.8426   -0.2110 C   0  0  0  0  0  0  0  0  0  0  0  0
    2.9240   -2.5089   -0.3183 O   0  0  0  0  0  0  0  0  0  0  0  0
    1.7021   -0.4404   -0.1861 C   0  0  0  0  0  0  0  0  0  0  0  0
    0.4431    0.1853   -0.0661 C   0  0  0  0  0  0  0  0  0  0  0  0
    2.9209    0.3647   -0.2832 C   0  0  0  0  0  0  0  0  0  0  0  0
    2.7815    1.7096   -0.0556 O   0  0  0  0  0  0  0  0  0  0  0  0
    4.0450    2.2804   -0.1962 N   0  0  0  0  0  0  0  0  0  0  0  0
    4.8221    1.2325   -0.4911 C   0  0  0  0  0  0  0  0  0  0  0  0
    4.1634    0.0287   -0.5576 N   0  0  0  0  0  0  0  0  0  0  0  0
    6.3479    1.3207   -0.7464 C   0  0  0  0  0  0  0  0  0  0  0  0
    7.1114    2.3925   -0.7204 N   0  0  0  0  0  0  0  0  0  0  0  0
    8.4021    1.9964   -1.0067 N   0  0  0  0  0  0  0  0  0  0  0  0
    8.3865    0.6977   -1.1979 C   0  0  0  0  0  0  0  0  0  0  0  0
    7.1188    0.2323   -1.0445 N   0  0  0  0  0  0  0  0  0  0  0  0
   -7.4514    1.4608    0.1795 H   0  0  0  0  0  0  0  0  0  0  0  0
   -6.1188    2.1012   -0.7980 H   0  0  0  0  0  0  0  0  0  0  0  0
   -6.1642    2.4167    0.9400 H   0  0  0  0  0  0  0  0  0  0  0  0
   -5.8125   -0.3306   -0.3810 H   0  0  0  0  0  0  0  0  0  0  0  0
   -5.4108   -1.1733    1.9272 H   0  0  0  0  0  0  0  0  0  0  0  0
   -7.0252   -0.4587    1.8001 H   0  0  0  0  0  0  0  0  0  0  0  0
   -5.7114    0.4362    2.5887 H   0  0  0  0  0  0  0  0  0  0  0  0
   -3.8237    1.4081    0.9704 H   0  0  0  0  0  0  0  0  0  0  0  0
   -1.8837    1.1743    0.1187 H   0  0  0  0  0  0  0  0  0  0  0  0
   -1.5673   -2.5614    0.0820 H   0  0  0  0  0  0  0  0  0  0  0  0
    0.5748   -3.6757   -0.1305 H   0  0  0  0  0  0  0  0  0  0  0  0
    2.7575   -3.4659   -0.3317 H   0  0  0  0  0  0  0  0  0  0  0  0
    0.3871    1.2723   -0.0485 H   0  0  0  0  0  0  0  0  0  0  0  0
    9.2342    0.0732   -1.4401 H   0  0  0  0  0  0  0  0  0  0  0  0
    6.7858   -0.7174   -1.1268 H   0  0  0  0  0  0  0  0  0  0  0  0
  1  2  1  0
  2  3  1  0
  2  4  1  0
  4  5  1  0
  5  6  2  0
  5  7  1  0
  7  8  1  0
  8  9  2  0
  9 10  1  0
 10 11  2  0
 11 12  1  0
 11 13  1  0
 13 14  2  0
 13 15  1  0
 15 16  1  0
 16 17  1  0
 17 18  2  0
 18 19  1  0
 18 20  1  0
 20 21  2  0
 21 22  1  0
 22 23  2  0
 23 24  1  0
 14  8  1  0
 19 15  2  0
 24 20  1  0
  1 25  1  0
  1 26  1  0
  1 27  1  0
  2 28  1  0
  3 29  1  0
  3 30  1  0
  3 31  1  0
  4 32  1  0
  7 33  1  0
  9 34  1  0
 10 35  1  0
 12 36  1  0
 14 37  1  0
 23 38  1  0
 24 39  1  0
M  END
>  <Unnamed: 0>  (265) 
1673

>  <ID>  (265) 
TRAIN_1673

>  <Canonical_Smiles>  (265) 
CC(C)NC(=O)Nc1ccc(O)c(c1)c2onc(n2)c3nnc[nH]3

>  <Inhibition>  (265) 
42.0802

>  <TDC_conf_true_inhibitor>  (265) 
0

>  <TDC_conf_non_inhibitor>  (265) 
1

>  <split>  (265) 
1

$$$$
265
     RDKit          3D

 61 64  0  0  0  0  0  0  0  0999 V2000
    8.3766    1.0025   -0.5614 C   0  0  0  0  0  0  0  0  0  0  0  0
    6.8979    0.8096   -0.7694 C   0  0  0  0  0  0  0  0  0  0  0  0
    6.0959    1.9427   -1.0105 C   0  0  0  0  0  0  0  0  0  0  0  0
    4.7164    1.7878   -1.2048 C   0  0  0  0  0  0  0  0  0  0  0  0
    3.7567    2.7381   -1.4559 N   0  0  0  0  0  0  0  0  0  0  0  0
    2.6324    2.0696   -1.5647 C   0  0  0  0  0  0  0  0  0  0  0  0
    2.8207    0.7295   -1.3706 N   0  0  0  0  0  0  0  0  0  0  0  0
    1.7781   -0.2764   -1.4152 C   0  0  0  0  0  0  0  0  0  0  0  0
    1.3530   -0.7910   -0.0266 C   0  0  0  0  0  0  0  0  0  0  0  0
    0.7941    0.3427    0.8537 C   0  0  0  0  0  0  0  0  0  0  0  0
   -0.1056   -0.1926    1.9607 C   0  0  0  0  0  0  0  0  0  0  0  0
   -1.2643   -0.9127    1.3857 N   0  0  0  0  0  0  0  0  0  0  0  0
   -1.0960   -1.4856    0.0344 C   0  0  0  0  0  0  0  0  0  0  0  0
    0.3450   -1.9492   -0.1573 C   0  0  0  0  0  0  0  0  0  0  0  0
   -2.8213   -0.4599    1.8713 S   0  0  0  0  0  6  0  0  0  0  0  0
   -3.7485   -1.4140    1.2988 O   0  0  0  0  0  0  0  0  0  0  0  0
   -2.7760   -0.2015    3.2932 O   0  0  0  0  0  0  0  0  0  0  0  0
   -3.0286    1.0985    1.0275 C   0  0  0  0  0  0  0  0  0  0  0  0
   -4.4085    1.6943    1.2871 C   0  0  0  0  0  0  0  0  0  0  0  0
   -5.5165    0.9396    0.6921 N   0  0  0  0  0  0  0  0  0  0  0  0
   -5.5855    0.8937   -0.6996 C   0  0  0  0  0  0  0  0  0  0  0  0
   -4.7929    1.4944   -1.4278 O   0  0  0  0  0  0  0  0  0  0  0  0
   -6.7292    0.1154   -1.3033 C   0  0  0  0  0  0  0  0  0  0  0  0
   -7.1562   -1.0134   -0.3920 C   0  0  0  0  0  0  0  0  0  0  0  0
   -7.5739   -0.4245    0.9369 C   0  0  0  0  0  0  0  0  0  0  0  0
   -6.4692    0.3990    1.5579 C   0  0  0  0  0  0  0  0  0  0  0  0
   -6.4846    0.6253    2.7682 O   0  0  0  0  0  0  0  0  0  0  0  0
    4.1597    0.5145   -1.1527 C   0  0  0  0  0  0  0  0  0  0  0  0
    4.9241   -0.6341   -0.9170 C   0  0  0  0  0  0  0  0  0  0  0  0
    6.3106   -0.4737   -0.7220 C   0  0  0  0  0  0  0  0  0  0  0  0
    7.1493   -1.6998   -0.4673 C   0  0  0  0  0  0  0  0  0  0  0  0
    8.9440    0.4340   -1.3048 H   0  0  0  0  0  0  0  0  0  0  0  0
    8.6633    0.6794    0.4442 H   0  0  0  0  0  0  0  0  0  0  0  0
    8.6634    2.0542   -0.6650 H   0  0  0  0  0  0  0  0  0  0  0  0
    6.5213    2.9399   -1.0523 H   0  0  0  0  0  0  0  0  0  0  0  0
    1.6642    2.5052   -1.7752 H   0  0  0  0  0  0  0  0  0  0  0  0
    0.9212    0.1517   -1.9499 H   0  0  0  0  0  0  0  0  0  0  0  0
    2.1609   -1.0986   -2.0321 H   0  0  0  0  0  0  0  0  0  0  0  0
    2.2429   -1.1972    0.4728 H   0  0  0  0  0  0  0  0  0  0  0  0
    1.6227    0.9084    1.2961 H   0  0  0  0  0  0  0  0  0  0  0  0
    0.2195    1.0505    0.2418 H   0  0  0  0  0  0  0  0  0  0  0  0
   -0.4296    0.6435    2.5884 H   0  0  0  0  0  0  0  0  0  0  0  0
    0.4467   -0.8839    2.6073 H   0  0  0  0  0  0  0  0  0  0  0  0
   -1.3600   -0.7472   -0.7295 H   0  0  0  0  0  0  0  0  0  0  0  0
   -1.7558   -2.3518   -0.0801 H   0  0  0  0  0  0  0  0  0  0  0  0
    0.4508   -2.4580   -1.1223 H   0  0  0  0  0  0  0  0  0  0  0  0
    0.5756   -2.6999    0.6108 H   0  0  0  0  0  0  0  0  0  0  0  0
   -2.2615    1.7793    1.4088 H   0  0  0  0  0  0  0  0  0  0  0  0
   -2.8485    0.9257   -0.0351 H   0  0  0  0  0  0  0  0  0  0  0  0
   -4.4366    2.6993    0.8474 H   0  0  0  0  0  0  0  0  0  0  0  0
   -4.5555    1.8221    2.3645 H   0  0  0  0  0  0  0  0  0  0  0  0
   -6.3976   -0.2985   -2.2619 H   0  0  0  0  0  0  0  0  0  0  0  0
   -7.5554    0.8087   -1.4955 H   0  0  0  0  0  0  0  0  0  0  0  0
   -7.9887   -1.5671   -0.8389 H   0  0  0  0  0  0  0  0  0  0  0  0
   -6.3276   -1.7179   -0.2491 H   0  0  0  0  0  0  0  0  0  0  0  0
   -8.4538    0.2186    0.8226 H   0  0  0  0  0  0  0  0  0  0  0  0
   -7.8290   -1.2351    1.6283 H   0  0  0  0  0  0  0  0  0  0  0  0
    4.4647   -1.6168   -0.8845 H   0  0  0  0  0  0  0  0  0  0  0  0
    7.6571   -1.6199    0.4990 H   0  0  0  0  0  0  0  0  0  0  0  0
    6.5373   -2.6079   -0.4425 H   0  0  0  0  0  0  0  0  0  0  0  0
    7.8907   -1.8242   -1.2627 H   0  0  0  0  0  0  0  0  0  0  0  0
  1  2  1  0
  2  3  2  0
  3  4  1  0
  4  5  1  0
  5  6  2  0
  6  7  1  0
  7  8  1  0
  8  9  1  0
  9 10  1  0
 10 11  1  0
 11 12  1  0
 12 13  1  0
 13 14  1  0
 12 15  1  0
 15 16  2  0
 15 17  2  0
 15 18  1  0
 18 19  1  0
 19 20  1  0
 20 21  1  0
 21 22  2  0
 21 23  1  0
 23 24  1  0
 24 25  1  0
 25 26  1  0
 26 27  2  0
  7 28  1  0
 28 29  1  0
 29 30  2  0
 30 31  1  0
 30  2  1  0
 28  4  2  0
 14  9  1  0
 26 20  1  0
  1 32  1  0
  1 33  1  0
  1 34  1  0
  3 35  1  0
  6 36  1  0
  8 37  1  0
  8 38  1  0
  9 39  1  0
 10 40  1  0
 10 41  1  0
 11 42  1  0
 11 43  1  0
 13 44  1  0
 13 45  1  0
 14 46  1  0
 14 47  1  0
 18 48  1  0
 18 49  1  0
 19 50  1  0
 19 51  1  0
 23 52  1  0
 23 53  1  0
 24 54  1  0
 24 55  1  0
 25 56  1  0
 25 57  1  0
 29 58  1  0
 31 59  1  0
 31 60  1  0
 31 61  1  0
M  END
>  <Unnamed: 0>  (266) 
1676

>  <ID>  (266) 
TRAIN_1676

>  <Canonical_Smiles>  (266) 
Cc1cc2ncn(CC3CCN(CC3)S(=O)(=O)CCN4C(=O)CCCC4=O)c2cc1C

>  <Inhibition>  (266) 
0.5

>  <TDC_conf_true_inhibitor>  (266) 
0

>  <TDC_conf_non_inhibitor>  (266) 
1

>  <split>  (266) 
1

$$$$
266
     RDKit          3D

 41 43  0  0  0  0  0  0  0  0999 V2000
    8.1274   -0.1386   -0.1665 C   0  0  0  0  0  0  0  0  0  0  0  0
    6.6556   -0.0801    0.1282 C   0  0  0  0  0  0  0  0  0  0  0  0
    6.1524    0.8335    0.9680 C   0  0  0  0  0  0  0  0  0  0  0  0
    4.7011    0.8454    1.2122 C   0  0  0  0  0  0  0  0  0  0  0  0
    4.2074    1.7161    1.9230 O   0  0  0  0  0  0  0  0  0  0  0  0
    3.9898   -0.1501    0.5820 N   0  0  0  0  0  0  0  0  0  0  0  0
    2.5447   -0.2073    0.7477 C   0  0  0  0  0  0  0  0  0  0  0  0
    1.8249    0.7753   -0.1856 C   0  0  0  0  0  0  0  0  0  0  0  0
    0.3849    0.6959   -0.0824 N   0  0  0  0  0  0  0  0  0  0  0  0
   -0.3393   -0.3542   -0.6164 C   0  0  0  0  0  0  0  0  0  0  0  0
    0.1982   -1.3030   -1.1830 O   0  0  0  0  0  0  0  0  0  0  0  0
   -1.7961   -0.2113   -0.4192 C   0  0  0  0  0  0  0  0  0  0  0  0
   -2.3329    0.8780    0.2375 N   0  0  0  0  0  0  0  0  0  0  0  0
   -3.6270    0.6531    0.2150 C   0  0  0  0  0  0  0  0  0  0  0  0
   -4.6369    1.4157    0.7245 N   0  0  0  0  0  0  0  0  0  0  0  0
   -5.8452    0.9616    0.5655 C   0  0  0  0  0  0  0  0  0  0  0  0
   -6.9845    1.7824    1.1177 C   0  0  0  0  0  0  0  0  0  0  0  0
   -6.2000   -0.3199   -0.1264 C   0  0  0  0  0  0  0  0  0  0  0  0
   -5.1747   -1.0415   -0.6132 C   0  0  0  0  0  0  0  0  0  0  0  0
   -5.3580   -2.3430   -1.3297 C   0  0  0  0  0  0  0  0  0  0  0  0
   -3.8725   -0.5572   -0.4449 N   0  0  0  0  0  0  0  0  0  0  0  0
   -2.7022   -1.1044   -0.8441 N   0  0  0  0  0  0  0  0  0  0  0  0
    4.6222   -1.0135   -0.2761 C   0  0  0  0  0  0  0  0  0  0  0  0
    5.8898   -1.0149   -0.5226 N   0  0  0  0  0  0  0  0  0  0  0  0
    8.3060    0.0098   -1.2367 H   0  0  0  0  0  0  0  0  0  0  0  0
    8.6886    0.6295    0.3762 H   0  0  0  0  0  0  0  0  0  0  0  0
    8.5328   -1.1146    0.1201 H   0  0  0  0  0  0  0  0  0  0  0  0
    6.7484    1.5773    1.4778 H   0  0  0  0  0  0  0  0  0  0  0  0
    2.2083   -1.2328    0.5575 H   0  0  0  0  0  0  0  0  0  0  0  0
    2.2940    0.0256    1.7898 H   0  0  0  0  0  0  0  0  0  0  0  0
    2.1050    0.5776   -1.2270 H   0  0  0  0  0  0  0  0  0  0  0  0
    2.1099    1.8077    0.0427 H   0  0  0  0  0  0  0  0  0  0  0  0
   -0.1453    1.4341    0.3759 H   0  0  0  0  0  0  0  0  0  0  0  0
   -7.9511    1.3090    0.9283 H   0  0  0  0  0  0  0  0  0  0  0  0
   -6.8537    1.8993    2.1975 H   0  0  0  0  0  0  0  0  0  0  0  0
   -6.9769    2.7705    0.6485 H   0  0  0  0  0  0  0  0  0  0  0  0
   -7.2381   -0.6138   -0.2090 H   0  0  0  0  0  0  0  0  0  0  0  0
   -4.8400   -3.1507   -0.8019 H   0  0  0  0  0  0  0  0  0  0  0  0
   -4.9628   -2.2816   -2.3492 H   0  0  0  0  0  0  0  0  0  0  0  0
   -6.4153   -2.6204   -1.4016 H   0  0  0  0  0  0  0  0  0  0  0  0
    3.9613   -1.7447   -0.7697 H   0  0  0  0  0  0  0  0  0  0  0  0
  1  2  1  0
  2  3  2  0
  3  4  1  0
  4  5  2  0
  4  6  1  0
  6  7  1  0
  7  8  1  0
  8  9  1  0
  9 10  1  0
 10 11  2  0
 10 12  1  0
 12 13  1  0
 13 14  2  0
 14 15  1  0
 15 16  2  0
 16 17  1  0
 16 18  1  0
 18 19  2  0
 19 20  1  0
 19 21  1  0
 21 22  1  0
  6 23  1  0
 23 24  2  0
 24  2  1  0
 22 12  2  0
 21 14  1  0
  1 25  1  0
  1 26  1  0
  1 27  1  0
  3 28  1  0
  7 29  1  0
  7 30  1  0
  8 31  1  0
  8 32  1  0
  9 33  1  0
 17 34  1  0
 17 35  1  0
 17 36  1  0
 18 37  1  0
 20 38  1  0
 20 39  1  0
 20 40  1  0
 23 41  1  0
M  END
>  <Unnamed: 0>  (267) 
1679

>  <ID>  (267) 
TRAIN_1679

>  <Canonical_Smiles>  (267) 
CC1=CC(=O)N(CCNC(=O)c2nc3nc(C)cc(C)n3n2)C=N1

>  <Inhibition>  (267) 
0.5

>  <TDC_conf_true_inhibitor>  (267) 
0

>  <TDC_conf_non_inhibitor>  (267) 
1

>  <split>  (267) 
1

$$$$
267
     RDKit          3D

 40 43  0  0  0  0  0  0  0  0999 V2000
    7.0253   -0.3684    1.1681 C   0  0  0  0  0  0  0  0  0  0  0  0
    6.2833   -1.5169    0.5019 C   0  0  0  0  0  0  0  0  0  0  0  0
    4.8899   -1.1173    0.0859 C   0  0  0  0  0  0  0  0  0  0  0  0
    4.6561   -0.5722   -1.1847 C   0  0  0  0  0  0  0  0  0  0  0  0
    3.3683   -0.1864   -1.5650 C   0  0  0  0  0  0  0  0  0  0  0  0
    2.3061   -0.3411   -0.6710 C   0  0  0  0  0  0  0  0  0  0  0  0
    0.9528    0.0727   -1.0913 C   0  0  0  0  0  0  0  0  0  0  0  0
   -0.0692   -0.0433   -0.3059 N   0  0  0  0  0  0  0  0  0  0  0  0
   -1.2654    0.3757   -0.8156 N   0  0  0  0  0  0  0  0  0  0  0  0
   -2.4627    0.3102   -0.1077 C   0  0  0  0  0  0  0  0  0  0  0  0
   -2.4540   -0.1782    1.1145 N   0  0  0  0  0  0  0  0  0  0  0  0
   -3.6447   -0.2270    1.7556 N   0  0  0  0  0  0  0  0  0  0  0  0
   -3.8943   -0.6876    3.0153 C   0  0  0  0  0  0  0  0  0  0  0  0
   -5.1768   -0.5782    3.2903 N   0  0  0  0  0  0  0  0  0  0  0  0
   -5.7935   -0.0296    2.1833 N   0  0  0  0  0  0  0  0  0  0  0  0
   -4.8619    0.1742    1.2752 C   0  0  0  0  0  0  0  0  0  0  0  0
   -4.9352    0.7225   -0.0541 C   0  0  0  0  0  0  0  0  0  0  0  0
   -6.1424    1.1597   -0.6079 C   0  0  0  0  0  0  0  0  0  0  0  0
   -6.1612    1.6897   -1.8961 C   0  0  0  0  0  0  0  0  0  0  0  0
   -4.9776    1.7824   -2.6272 C   0  0  0  0  0  0  0  0  0  0  0  0
   -3.7670    1.3448   -2.0768 C   0  0  0  0  0  0  0  0  0  0  0  0
   -3.7365    0.8083   -0.7825 C   0  0  0  0  0  0  0  0  0  0  0  0
    2.5280   -0.8772    0.5994 C   0  0  0  0  0  0  0  0  0  0  0  0
    3.8165   -1.2614    0.9759 C   0  0  0  0  0  0  0  0  0  0  0  0
    8.0312   -0.6865    1.4596 H   0  0  0  0  0  0  0  0  0  0  0  0
    6.5032   -0.0270    2.0684 H   0  0  0  0  0  0  0  0  0  0  0  0
    7.1226    0.4875    0.4918 H   0  0  0  0  0  0  0  0  0  0  0  0
    6.2325   -2.3727    1.1859 H   0  0  0  0  0  0  0  0  0  0  0  0
    6.8452   -1.8624   -0.3744 H   0  0  0  0  0  0  0  0  0  0  0  0
    5.4796   -0.4449   -1.8845 H   0  0  0  0  0  0  0  0  0  0  0  0
    3.2109    0.2314   -2.5554 H   0  0  0  0  0  0  0  0  0  0  0  0
    0.8568    0.4867   -2.1110 H   0  0  0  0  0  0  0  0  0  0  0  0
   -1.2834    0.7167   -1.7676 H   0  0  0  0  0  0  0  0  0  0  0  0
   -3.1212   -1.0775    3.6583 H   0  0  0  0  0  0  0  0  0  0  0  0
   -7.0659    1.0894   -0.0355 H   0  0  0  0  0  0  0  0  0  0  0  0
   -7.0991    2.0314   -2.3281 H   0  0  0  0  0  0  0  0  0  0  0  0
   -4.9986    2.1994   -3.6323 H   0  0  0  0  0  0  0  0  0  0  0  0
   -2.8785    1.4442   -2.6882 H   0  0  0  0  0  0  0  0  0  0  0  0
    1.7041   -0.9972    1.3002 H   0  0  0  0  0  0  0  0  0  0  0  0
    3.9768   -1.6739    1.9699 H   0  0  0  0  0  0  0  0  0  0  0  0
  1  2  1  0
  2  3  1  0
  3  4  2  0
  4  5  1  0
  5  6  2  0
  6  7  1  0
  7  8  2  0
  8  9  1  0
  9 10  1  0
 10 11  2  0
 11 12  1  0
 12 13  1  0
 13 14  2  0
 14 15  1  0
 15 16  2  0
 16 17  1  0
 17 18  2  0
 18 19  1  0
 19 20  2  0
 20 21  1  0
 21 22  2  0
  6 23  1  0
 23 24  2  0
 24  3  1  0
 22 10  1  0
 16 12  1  0
 22 17  1  0
  1 25  1  0
  1 26  1  0
  1 27  1  0
  2 28  1  0
  2 29  1  0
  4 30  1  0
  5 31  1  0
  7 32  1  0
  9 33  1  0
 13 34  1  0
 18 35  1  0
 19 36  1  0
 20 37  1  0
 21 38  1  0
 23 39  1  0
 24 40  1  0
M  END
>  <Unnamed: 0>  (268) 
1680

>  <ID>  (268) 
TRAIN_1680

>  <Canonical_Smiles>  (268) 
CCc1ccc(\C=N\Nc2nn3cnnc3c4ccccc24)cc1

>  <Inhibition>  (268) 
41.700398

>  <TDC_conf_true_inhibitor>  (268) 
1

>  <TDC_conf_non_inhibitor>  (268) 
0

>  <split>  (268) 
1

$$$$
